   68
scf done: -1615.850574
 C     1.543490    -0.068059     1.112387
 C     2.404217    -0.037059     2.202378
 C     3.816841    -0.088363     2.048837
 C     4.388524    -0.189787     0.795307
 C     3.499883    -0.255487    -0.279769
 C     4.137890    -0.315748    -1.524388
 C     3.321969    -0.340629    -2.632163
 C     1.902820    -0.274091    -2.497199
 C     1.303655    -0.179295    -1.254154
 C     2.139929    -0.187614    -0.141232
 C     5.717518    -0.198815     0.160589
 C     5.569089    -0.271482    -1.180248
 C     0.016265     0.007003     0.968656
 C    -0.530507     1.316557     1.562827
 C     0.332104     2.274246     2.102414
 C    -0.109725     3.495033     2.579261
 C    -1.430558     3.821821     2.519215
 C    -2.306224     2.915312     1.979860
 C    -1.897692     1.655315     1.517539
 C    -2.938881     0.797833     0.992139
 C    -2.995028    -0.533278     0.978384
 C    -2.025734    -1.477961     1.504251
 C    -2.524178    -2.713991     1.920779
 C    -1.740225    -3.661243     2.508906
 C    -0.404148    -3.393864     2.698717
 C     0.134007    -2.211447     2.228842
 C    -0.641657    -1.230263     1.608432
 C    -0.157340    -0.024574    -0.829155
 C    -0.610678     1.370893    -1.308851
 C     0.335770     2.388402    -1.150405
 C     0.096249     3.714258    -1.450663
 C    -1.132161     4.091793    -1.915143
 C    -2.072435     3.127173    -2.098113
 C    -1.855934     1.767367    -1.837335
 C    -2.956770     0.905696    -2.230126
 C    -3.066821    -0.416194    -2.271395
 C    -2.138813    -1.465917    -1.881836
 C    -2.607324    -2.770913    -2.144173
 C    -1.893702    -3.888406    -1.862969
 C    -0.643653    -3.752997    -1.315785
 C    -0.157609    -2.493566    -1.043782
 C    -0.873813    -1.316811    -1.282058
 H     2.046279     0.019195     3.058378
 H     4.362395    -0.053201     2.801871
 H     3.699766    -0.400955    -3.479684
 H     1.370207    -0.294350    -3.260542
 H     6.530639    -0.161029     0.612248
 H     1.242067     2.082962     2.142609
 H     0.499734     4.097236     2.943286
 H    -1.732668     4.641736     2.836520
 H    -3.204684     3.144295     1.917607
 H    -3.666745     1.235073     0.612505
 H    -3.750532    -0.903612     0.582222
 H    -3.425594    -2.898005     1.791569
 H    -2.102842    -4.473922     2.777672
 H     0.135620    -4.007506     3.141546
 H     1.046503    -2.064069     2.329583
 H     1.176137     2.158165    -0.824233
 H     0.767806     4.346401    -1.337735
 H    -1.319176     4.983577    -2.101137
 H    -2.907863     3.384171    -2.415159
 H    -3.720951     1.361260    -2.500916
 H    -3.878260    -0.724803    -2.606796
 H    -3.447841    -2.869450    -2.529785
 H    -2.245565    -4.732106    -2.037983
 H    -0.128972    -4.504258    -1.130725
 H     0.695313    -2.421852    -0.680371
 H     6.267548    -0.290051    -1.795225
