   70
scf done: -1617.077310
 H    -6.111591    -0.878886    -1.658730
 C    -4.336675     0.000070     0.881644
 C    -3.485814     0.000207    -0.231164
 C    -4.123523     0.000286    -1.481331
 C    -3.317851     0.000320    -2.607131
 C    -5.766470     0.000081     0.356032
 C    -5.624644     0.000247    -1.218277
 H    -3.746427     0.000374    -3.607595
 H    -6.323390    -0.879146     0.703764
 H    -6.323457     0.879200     0.703939
 H    -6.111603     0.879475    -1.658534
 H    -0.444704    -4.569504    -1.186681
 C    -1.473951    -0.000021     1.144295
 C    -2.311327    -0.000150     2.255642
 C    -3.739321    -0.000110     2.130978
 C    -1.889764     0.000274    -2.479067
 C    -1.282837     0.000191    -1.235307
 C    -2.101636     0.000162    -0.105919
 C     0.061491    -0.000056     0.981207
 C     0.681365     1.269154     1.611993
 C    -0.133933     2.228963     2.237121
 C     0.363134     3.414992     2.768117
 C     1.721504     3.706299     2.667280
 C     2.550381     2.784699     2.047481
 C     2.069031     1.559847     1.542926
 C     3.076822     0.671595     0.983014
 C     3.076808    -0.671751     0.982989
 C     2.068993    -1.560014     1.542855
 C     2.550329    -2.784869     2.047401
 C     1.721423    -3.706512     2.667114
 C     0.363040    -3.415257     2.767820
 C    -0.134010    -2.229211     2.236833
 C     0.681317    -1.269333     1.611856
 C     0.202860     0.000054    -0.832114
 C     0.765709     1.353925    -1.327261
 C    -0.068599     2.462347    -1.073356
 C     0.248310     3.766661    -1.425918
 C     0.247755    -3.766531    -1.426201
 C    -0.068992    -2.462174    -1.073599
 C     0.765495    -1.353873    -1.327364
 H    -1.894601    -0.000294     3.259861
 H    -4.333460    -0.000227     3.042827
 H    -1.201742     2.068000     2.290679
 H    -0.321466     4.117027     3.238569
 H     2.126599     4.635552     3.060947
 H     3.614981     2.991398     1.959017
 H     3.972726     1.165783     0.610836
 H     3.972698    -1.165944     0.610793
 H     3.614937    -2.991561     1.958999
 H     2.126532    -4.635744     3.060813
 H    -0.321600    -4.117331     3.238156
 H    -1.201834    -2.068302     2.290270
 H    -1.013561     2.303039    -0.570160
 H    -0.443990     4.569740    -1.186302
 H    -1.013980    -2.302768    -0.570480
 H     1.723755    -5.038317    -2.374053
 C     1.450121     4.027855    -2.080253
 C     2.291122     2.963946    -2.351140
 C     1.986293     1.627040    -1.995876
 C     3.006848     0.671214    -2.394381
 C     3.006778    -0.671426    -2.394363
 C     1.986099    -1.627135    -1.995906
 C     2.290769    -2.964065    -2.351183
 C     1.449584    -4.027873    -2.080415
 H    -1.288863     0.000294    -3.385495
 H     1.724379     5.038281    -2.373884
 H     3.230734     3.146679    -2.868075
 H     3.907213     1.137345    -2.791958
 H     3.907105    -1.137653    -2.791910
 H     3.230397    -3.146923    -2.868048
