   66
scf done: -2158.879007
Cl     2.935864     2.537289     0.594931
Cl     0.710833    -3.265469    -0.640684
 C     0.448810    -0.548990    -0.313466
 C    -1.014352    -0.240790     0.019963
 C    -0.457059     1.415601     0.046333
 C     0.930401     0.751482    -0.036133
 C     2.277983     0.987678     0.060289
 C     3.207583    -0.063321    -0.237215
 C     4.613181     0.137390    -0.231117
 C     5.486436    -0.884611    -0.525315
 C     4.995857    -2.170017    -0.834540
 C     3.640568    -2.406803    -0.842998
 C     2.708229    -1.377218    -0.552115
 C     1.294849    -1.604315    -0.525897
 C    -1.344051    -0.967440     1.371846
 C    -0.320162    -1.444362     2.210964
 C    -0.589590    -2.145279     3.384002
 C    -1.903472    -2.406102     3.766989
 C    -2.935559    -1.960280     2.945992
 C    -2.657990    -1.266324     1.767999
 C    -2.110654    -0.605185    -0.986947
 C    -1.920696    -1.593883    -1.960349
 C    -2.938527    -1.952107    -2.843374
 C    -4.184522    -1.330851    -2.777536
 C    -4.395208    -0.347834    -1.811744
 C    -3.373352     0.003903    -0.930964
 C    -0.809150     2.270850     1.365726
 C    -2.326127     2.251291     1.665139
 C    -0.395712     3.767033     1.325547
 C    -0.092513     1.720909     2.624953
 C    -0.656515     2.210934    -1.380486
 C    -0.572796     1.305030    -2.640290
 C    -1.987054     2.986408    -1.516301
 C     0.502985     3.222433    -1.603211
 H     4.996383     1.123698     0.005345
 H     6.557590    -0.696990    -0.519539
 H     5.687178    -2.976302    -1.068026
 H     3.264012    -3.396005    -1.079218
 H     0.717878    -1.257304     1.965360
 H     0.240189    -2.489349     3.997042
 H    -2.117621    -2.957367     4.679749
 H    -3.971778    -2.162666     3.207743
 H    -3.496891    -0.978316     1.148699
 H    -0.961437    -2.084435    -2.053960
 H    -2.748467    -2.719465    -3.590629
 H    -4.978338    -1.607016    -3.467642
 H    -5.358297     0.152295    -1.739474
 H    -3.568558     0.771655    -0.192288
 H    -2.702685     1.239603     1.818749
 H    -2.917918     2.735966     0.886138
 H    -2.508037     2.801506     2.595737
 H    -0.871623     4.342185     0.531966
 H    -0.709206     4.218856     2.273539
 H     0.685963     3.895226     1.254358
 H    -0.247050     2.425535     3.449969
 H     0.987005     1.627361     2.478588
 H    -0.482876     0.760345     2.950038
 H     0.239609     0.575275    -2.591195
 H    -1.500325     0.778050    -2.851263
 H    -0.369630     1.950589    -3.501738
 H    -2.859070     2.341050    -1.413795
 H    -2.027783     3.416160    -2.524331
 H    -2.083635     3.816820    -0.816101
 H     0.249451     3.838590    -2.473482
 H     0.695045     3.896016    -0.774566
 H     1.436153     2.706087    -1.842428
