   62
scf done: -1981.651493
 I     3.561098     1.571405    -0.220518
 I    -3.561292     1.570800     0.221048
 C     0.849492    -1.040393    -0.162778
 C    -0.849311    -1.040565     0.162589
 C    -0.698561     0.480080     0.096873
 C    -1.425492     1.638235     0.122130
 C    -0.724496     2.887881     0.048230
 C    -1.390087     4.141153     0.084920
 C    -0.703939     5.332260     0.041759
 C     0.703145     5.332375    -0.041235
 C     1.389479     4.141379    -0.084415
 C     0.724089     2.888000    -0.047739
 C     1.425288     1.638480    -0.121712
 C     0.698542     0.480208    -0.096512
 C     1.162039    -1.609596    -1.541215
 C     1.722805    -0.835072    -2.561327
 C     2.005946    -1.384603    -3.813671
 C     1.728469    -2.724209    -4.074065
 C     1.156205    -3.508262    -3.070377
 C     0.873978    -2.954305    -1.825403
 C     1.766407    -1.585402     0.940780
 C     1.793401    -0.954192     2.196326
 C     2.623175    -1.403019     3.218520
 C     3.463950    -2.497865     3.013732
 C     3.464861    -3.125022     1.770378
 C     2.631027    -2.671306     0.746737
 C    -1.766189    -1.585277    -0.941139
 C    -1.793473    -0.953468    -2.196384
 C    -2.623259    -1.402007    -3.218684
 C    -3.463769    -2.497143    -3.014326
 C    -3.464404    -3.124867    -1.771278
 C    -2.630550    -2.671448    -0.747502
 C    -1.161766    -1.610270     1.540846
 C    -0.873377    -2.954982     1.824679
 C    -1.155519    -3.509336     3.069493
 C    -1.728025    -2.725696     4.073366
 C    -2.005825    -1.386092     3.813329
 C    -1.722759    -0.836154     2.561144
 H    -2.472837     4.147786     0.154925
 H    -1.250237     6.271987     0.073490
 H     1.249297     6.272185    -0.072962
 H     2.472227     4.148185    -0.154438
 H     1.943427     0.212315    -2.388680
 H     2.444588    -0.756196    -4.585568
 H     1.947275    -3.153109    -5.049249
 H     0.919189    -4.552623    -3.259102
 H     0.409973    -3.577817    -1.067110
 H     1.157698    -0.094882     2.382240
 H     2.615658    -0.889584     4.177177
 H     4.117293    -2.848220     3.809690
 H     4.126309    -3.968192     1.582883
 H     2.677352    -3.166988    -0.215654
 H    -1.157984    -0.093927    -2.381952
 H    -2.615976    -0.888135    -4.177110
 H    -4.117148    -2.847240    -3.810369
 H    -4.125634    -3.968278    -1.584099
 H    -2.676666    -3.167597     0.214658
 H    -0.409190    -3.578172     1.066233
 H    -0.918234    -4.553685     3.257948
 H    -1.946760    -3.154923     5.048423
 H    -2.444683    -0.758007     4.585366
 H    -1.943635     0.211227     2.388766
