   62
scf done: -6534.279907
Br     1.770304     3.328815    -0.364827
Br     1.770709    -3.328337     0.365406
 C    -0.866675     0.844998    -0.184581
 C    -0.866506    -0.845104     0.184394
 C     0.652779    -0.692610     0.123898
 C     1.813758    -1.411269     0.180751
 C     3.063726    -0.719527     0.079792
 C     4.314005    -1.387527     0.147783
 C     5.503662    -0.700857     0.073973
 C     5.503551     0.701876    -0.073366
 C     4.313785     1.388349    -0.147285
 C     3.063614     0.720159    -0.079367
 C     1.813552     1.411712    -0.180386
 C     0.652662     0.692902    -0.123657
 C    -1.443792     1.133637    -1.564401
 C    -2.782478     0.817181    -1.845210
 C    -3.342577     1.081089    -3.091575
 C    -2.571037     1.664647    -4.098367
 C    -1.238485     1.975523    -3.838830
 C    -0.682495     1.711193    -2.585262
 C    -1.397788     1.789800     0.901896
 C    -0.752627     1.849122     2.148976
 C    -1.190229     2.706263     3.153389
 C    -2.287681     3.541141     2.938272
 C    -2.929610     3.508202     1.702912
 C    -2.486995     2.647521     0.696794
 C    -1.396971    -1.790126    -0.902210
 C    -0.751529    -1.849098    -2.149162
 C    -1.188447    -2.706516    -3.153627
 C    -2.285449    -3.542042    -2.938691
 C    -2.927607    -3.509475    -1.703446
 C    -2.485688    -2.648497    -0.697265
 C    -1.443882    -1.133845     1.564073
 C    -0.682553    -1.710815     2.585240
 C    -1.238742    -1.975230     3.838706
 C    -2.571520    -1.664983     4.097825
 C    -3.343099    -1.082006     3.090717
 C    -2.782812    -0.818057     1.844451
 H     4.316337    -2.465828     0.266286
 H     6.444586    -1.243079     0.130775
 H     6.444384     1.244254    -0.130060
 H     4.315974     2.466644    -0.265863
 H    -3.396441     0.347224    -1.082884
 H    -4.381892     0.821586    -3.278590
 H    -3.004470     1.868366    -5.074800
 H    -0.621008     2.426822    -4.612264
 H     0.356778     1.965403    -2.410051
 H     0.107497     1.216572     2.342958
 H    -0.666776     2.724060     4.106477
 H    -2.629187     4.215674     3.720292
 H    -3.775584     4.163820     1.507847
 H    -2.994349     2.665545    -0.260655
 H     0.108285    -1.216082    -2.342990
 H    -0.664821    -2.724011    -4.106627
 H    -2.626414    -4.216774    -3.720769
 H    -3.773205    -4.165614    -1.508509
 H    -2.993209    -2.666777     0.260093
 H     0.356923    -1.964455     2.410355
 H    -0.621250    -2.426110     4.612370
 H    -3.005109    -1.868736     5.074184
 H    -4.382595    -0.823007     3.277411
 H    -3.396820    -0.348613     1.081842
