   54
scf done: -1307.422290
 C    -0.000473     0.654873     0.863069
 C    -0.000019     0.655723    -0.862703
 C     0.001049    -1.906067     0.675055
 C     0.001305    -1.905329    -0.677289
 C    -1.226562    -0.020402     1.463557
 C    -2.297967     0.631561     2.065440
 H    -2.317904     1.717355     2.113347
 C    -3.353030    -0.113084     2.605551
 H    -4.185503     0.400970     3.080639
 C    -3.341395    -1.504510     2.537263
 H    -4.163883    -2.077273     2.959634
 C    -2.274350    -2.170513     1.922295
 H    -2.264773    -3.255632     1.857290
 C    -1.226021    -1.433185     1.388989
 C     1.226243    -0.019002     1.463933
 C     2.296729     0.634246     2.066059
 H     2.315319     1.720069     2.113974
 C     3.352546    -0.109138     2.606413
 H     4.184273     0.405888     3.081758
 C     3.342617    -1.500584     2.538063
 H     4.165724    -2.072348     2.960582
 C     2.276528    -2.167856     1.922825
 H     2.268260    -3.252983     1.857798
 C     1.227404    -1.431773     1.389351
 C    -1.226062    -0.018833    -1.464142
 C    -2.297492     0.633808    -2.065236
 H    -2.317334     1.719659    -2.112078
 C    -3.352628    -0.110231    -2.606030
 H    -4.185106     0.404337    -3.080551
 C    -3.341090    -1.501724    -2.539121
 H    -4.163634    -2.073997    -2.962050
 C    -2.274090    -2.168415    -1.924851
 H    -2.264587    -3.253596    -1.860914
 C    -1.225588    -1.431696    -1.391011
 C     1.226843    -0.017567    -1.463753
 C     2.297656     0.636275    -2.064690
 H     2.316291     1.722154    -2.111470
 C     3.353681    -0.106595    -2.605303
 H     4.185695     0.408862    -3.079674
 C     3.343642    -1.498121    -2.538395
 H     4.166909    -2.069474    -2.961160
 C     2.277251    -2.165982    -1.924367
 H     2.268887    -3.251171    -1.860478
 C     1.227874    -1.430404    -1.390639
 C    -0.001280     2.162059     0.696114
 C    -0.002777     3.338470     1.435444
 H    -0.003137     3.351333     2.522643
 C    -0.003696     4.534489     0.702835
 H    -0.004810     5.485298     1.231680
 C    -0.003270     4.535194    -0.698681
 H    -0.004071     5.486513    -1.226617
 C    -0.001879     3.339916    -1.432480
 H    -0.001589     3.353971    -2.519673
 C    -0.000870     2.162737    -0.694347
