   28
scf done:  -442.736917
 B     0.376484     6.649208     5.263431
 H     0.857816     6.076496     6.188263
 B    -1.991120     7.599083     3.935011
 H    -3.169366     7.658880     3.788265
 B    -1.208768     6.167860     4.635536
 H    -1.835521     5.219913     4.984926
 B    -0.943758     8.111549     2.573457
 H    -1.370848     8.468728     1.523539
 B     0.276317     5.888213     3.668480
 H     0.630250     4.805730     3.329300
 B     0.558192     8.410749     4.994714
 H     1.173794     9.112378     5.731919
 B     1.403933     7.250884     3.949854
 H     2.568457     7.053228     3.839010
 B     0.620083     8.680813     3.238416
 H     1.231196     9.495403     2.629374
 B    -1.027401     7.752465     5.416877
 H    -1.556716     7.975676     6.458462
 B    -0.895157     8.977617     4.114621
 H    -1.324682    10.082585     4.212272
 C     0.492623     7.159793     2.537547
 C    -1.182568     6.470897     2.982932
 N     1.029017     6.838679     1.292305
 N    -1.751407     5.664249     1.985239
 H    -1.890637     4.703962     2.278645
 H    -2.605211     6.049387     1.597661
 H     0.531641     7.236726     0.504899
 H     1.206458     5.851349     1.152340
