   55
scf done: -1021.451810
 B    -2.284927    -0.013861    -1.473230
 H    -1.528643    -0.052825    -2.381583
 B    -3.085626     1.438697    -0.911275
 H    -2.937385     2.443951    -1.523704
 B    -2.989656     1.484431     0.877121
 H    -2.821779     2.519267     1.431489
 B    -2.167468     0.045819     1.481765
 H    -1.338743     0.056934     2.323209
 B    -3.026130    -1.395516     0.975896
 H    -2.858712    -2.405990     1.575876
 B    -3.084568    -1.436115    -0.816999
 H    -2.968862    -2.471508    -1.383837
 B    -4.017763    -0.009798    -1.375240
 H    -4.655939    -0.045718    -2.377928
 B    -3.896193     0.074750     1.514808
 H    -4.457091     0.120746     2.562264
 B    -4.485798    -0.865130     0.117291
 H    -5.486473    -1.504389     0.176004
 B    -4.476322     0.930778     0.061846
 H    -5.467935     1.585852     0.093328
 N    -0.351384     1.203033    -0.161818
 N    -0.361984    -1.186215     0.028197
 C    -1.721635     0.816148    -0.050392
 C    -1.737315    -0.794309     0.020579
 C     0.437255    -0.013122    -0.424267
 H     1.387071     0.031506     0.113804
 H     0.654499    -0.103719    -1.500247
 C    -0.024693    -2.440054    -0.652392
 H    -0.120393    -2.340117    -1.747482
 H    -0.752900    -3.191443    -0.329981
 C     1.374638    -2.904397    -0.304816
 C     1.747904    -3.091662     1.032901
 H     1.030599    -2.874908     1.821711
 C     3.024633    -3.546449     1.354612
 H     3.299603    -3.691312     2.397333
 C     3.947867    -3.823266     0.342603
 H     4.944073    -4.180588     0.594292
 C     3.585651    -3.637545    -0.990599
 H     4.298143    -3.847634    -1.785257
 C     2.305412    -3.179821    -1.310441
 H     2.028315    -3.036039    -2.353528
 C     0.189182     2.119701     0.855002
 H     0.349824     1.613132     1.819092
 H    -0.565471     2.894667     1.018269
 C     1.481827     2.762127     0.397424
 C     2.618710     2.723064     1.209890
 H     2.579231     2.200643     2.164369
 C     3.802883     3.346709     0.810368
 H     4.678356     3.306765     1.454701
 C     3.861476     4.015006    -0.411413
 H     4.782311     4.501604    -0.725654
 C     2.730879     4.054953    -1.232120
 H     2.768905     4.576107    -2.186394
 C     1.550750     3.433529    -0.830678
 H     0.672682     3.463346    -1.472271
