   50
scf done:  -980.949590
 B     5.739574     3.513287     3.603829
 B     4.202544     4.411033     3.620056
 B     3.591360     4.411097     5.287835
 B     5.744500     5.280397     3.590312
 B     4.411644     5.842755     4.642517
 C     4.435486     3.072810     4.651302
 C     2.704485     1.656411     4.017273
 H     2.068174     2.521126     3.784290
 N     3.897393     1.789592     4.454065
 C     2.097076     0.340437     3.795022
 C     0.781576     0.271722     3.313677
 H     0.234938     1.192128     3.113658
 C     0.173311    -0.962390     3.091025
 H    -0.847128    -1.005478     2.717638
 C     0.876894    -2.139006     3.348419
 H     0.405105    -3.104013     3.175688
 C     2.190167    -2.078780     3.828989
 H     2.736816    -2.997764     4.028980
 C     2.798457    -0.849864     4.051722
 H     3.817034    -0.786166     4.424583
 H     2.436612     4.252693     5.514168
 H     6.044648     2.731361     2.771213
 H     3.467379     4.252660     2.701231
 H     6.101849     5.859400     2.615039
 H     3.805132     6.841301     4.420332
 B     4.753938     3.513289     6.293355
 B     6.290967     4.411037     6.277127
 B     6.902150     4.411098     4.609347
 B     4.749010     5.280399     6.306869
 B     6.081865     5.842757     5.254662
 C     6.058026     3.072812     5.245882
 C     7.789028     1.656415     5.879916
 H     8.425337     2.521131     6.112897
 N     6.596119     1.789593     5.443122
 C     8.396437     0.340441     6.102169
 C     9.711937     0.271729     6.583516
 H    10.258574     1.192135     6.783533
 C    10.320202    -0.962383     6.806171
 H    11.340641    -1.005469     7.179558
 C     9.616621    -2.138999     6.548778
 H    10.088411    -3.104005     6.721511
 C     8.303348    -2.078775     6.068207
 H     7.756700    -2.997760     5.868217
 C     7.695057    -0.849861     5.845471
 H     6.676480    -0.786164     5.472609
 H     8.056898     4.252692     4.383014
 H     4.448863     2.731365     7.125973
 H     7.026131     4.252665     7.195952
 H     4.391660     5.859405     7.282140
 H     6.688376     6.841303     5.476845
