   54
scf done:  -983.379758
 B    -1.214681     1.985928     0.000000
 B    -0.795733     2.957201     1.462116
 B     0.979408     3.057769     1.457866
 B     1.487231     2.134634     0.000000
 B    -1.394420     3.752918     0.000000
 B     0.014535     4.431266     0.879922
 B     1.485829     3.918353     0.000000
 C     0.160832     1.674481     0.990192
 N     0.275948     0.429563     1.588472
 C    -0.778447    -0.085531     2.476745
 H    -1.701207    -0.174437     1.893510
 H    -0.979678     0.613071     3.300721
 C    -0.377193    -1.426939     3.042572
 C    -0.013298    -1.548722     4.387650
 H    -0.034324    -0.670245     5.030612
 C     0.366745    -2.784699     4.914758
 H     0.643152    -2.862796     5.963987
 C     0.390291    -3.914165     4.097797
 H     0.682825    -4.878893     4.506579
 C     0.031929    -3.802441     2.752026
 H     0.044054    -4.680985     2.110472
 C    -0.347354    -2.567912     2.230058
 H    -0.625391    -2.482409     1.181814
 H    -2.097752     1.196114     0.000000
 H     2.498600     4.542353     0.000000
 H    -1.444082     2.817626     2.446504
 H     2.430491     1.412139     0.000000
 H    -2.465336     4.270774     0.000000
 H     1.631351     2.960195     2.447018
 H    -0.044877     5.432815     1.519016
 H     1.211557     0.233232     1.923636
 B    -0.795733     2.957201    -1.462116
 B     0.979408     3.057769    -1.457866
 B     0.014535     4.431266    -0.879922
 C     0.160832     1.674481    -0.990192
 N     0.275948     0.429563    -1.588472
 C    -0.778447    -0.085531    -2.476745
 H    -1.701207    -0.174437    -1.893510
 H    -0.979678     0.613071    -3.300721
 C    -0.377193    -1.426939    -3.042572
 C    -0.013298    -1.548722    -4.387650
 H    -0.034324    -0.670245    -5.030612
 C     0.366745    -2.784699    -4.914758
 H     0.643152    -2.862796    -5.963987
 C     0.390291    -3.914165    -4.097797
 H     0.682825    -4.878893    -4.506579
 C     0.031929    -3.802441    -2.752026
 H     0.044054    -4.680985    -2.110472
 C    -0.347354    -2.567912    -2.230058
 H    -0.625391    -2.482409    -1.181814
 H    -1.444082     2.817626    -2.446504
 H     1.631351     2.960195    -2.447018
 H    -0.044877     5.432815    -1.519016
 H     1.211557     0.233232    -1.923636
