   68
FINAL HEAT OF FORMATION = -1596.321147
 C     9.127207    11.499768    15.363280
 C     8.149950    12.465560    15.669076
 C     7.021806    12.169547    16.534663
 C     6.866808    10.894612    17.101816
 C     7.872122     9.938850    16.773085
 C     7.661145     8.664691    17.378590
 C     8.617124     7.675938    17.096230
 C     9.749292     7.962956    16.230839
 C     9.920698     9.228549    15.655079
 C     8.947652    10.219357    15.948676
 C     5.935039    10.137344    18.004159
 C     6.393789     8.850127    18.163527
 C    10.438948    11.483122    14.489035
 C    11.463355    12.551651    15.040435
 C    11.140375    13.312145    16.194998
 C    12.030975    14.236496    16.766101
 C    13.308941    14.418430    16.205269
 C    13.660532    13.675822    15.071407
 C    12.757278    12.758997    14.459481
 C    13.256261    12.093736    13.227562
 C    12.534498    11.704664    12.152095
 C    11.069762    11.849224    11.945176
 C    10.657284    12.056860    10.596969
 C     9.315472    12.265940    10.255622
 C     8.345518    12.250332    11.275342
 C     8.731086    12.013790    12.605417
 C    10.083651    11.807897    12.984658
 C    11.005299     9.853427    14.698465
 C    12.340259     9.834970    15.540017
 C    12.178659    10.265897    16.889847
 C    13.234407    10.328572    17.810340
 C    14.529889     9.951959    17.406489
 C    14.722153     9.524615    16.090119
 C    13.657823     9.448700    15.136033
 C    14.081896     8.953303    13.804362
 C    13.358891     8.565375    12.729668
 C    11.893315     8.500740    12.513746
 C    11.515049     7.801470    11.323489
 C    10.182691     7.615253    10.945807
 C     9.168982     8.142336    11.769018
 C     9.518309     8.834855    12.937052
 C    10.866993     9.042646    13.351337
 H     8.217443    13.481033    15.255085
 H     6.299793    12.977354    16.726734
 H     8.537973     6.662654    17.518344
 H    10.470371     7.155991    16.039906
 H     5.029549    10.553960    18.461785
 H    10.168089    13.164254    16.674959
 H    11.730705    14.797478    17.661023
 H    14.020997    15.126519    16.649124
 H    14.653403    13.804985    14.620190
 H    14.351250    12.020036    13.160268
 H    13.085436    11.337723    11.274156
 H    11.427768    12.066027     9.814442
 H     9.027514    12.434996     9.209715
 H     7.284410    12.401561    11.036750
 H     7.950909    11.969670    13.371547
 H    11.181528    10.565543    17.230111
 H    13.044509    10.672404    18.835626
 H    15.373011     9.992217    18.108420
 H    15.726024     9.226290    15.760167
 H    15.173109     8.857784    13.710965
 H    13.934818     8.193320    11.870319
 H    12.317056     7.395428    10.692982
 H     9.934921     7.069429    10.026096
 H     8.110680     8.018841    11.503985
 H     8.709929     9.235499    13.558191
 H     5.913175     8.072339    18.769643
