   70
FINAL HEAT OF FORMATION = -1597.568925
 H     6.123590     5.809405    23.041259
 C     7.910033     4.497862    25.430979
 C     8.094852     5.905105    25.493521
 C     7.140204     6.692512    24.792385
 C     7.293849     8.079158    24.834749
 C     6.648302     4.249223    24.564443
 C     6.137855     5.704051    24.141410
 H     6.592660     8.747596    24.315651
 H     6.885391     3.641658    23.672081
 H     5.868834     3.709557    25.132624
 H     5.107638     5.877756    24.502130
 H    12.567444     8.086691    22.876841
 C    10.103645     5.696162    26.902385
 C     9.930175     4.304705    26.847026
 C     8.833413     3.702293    26.111467
 C     8.392127     8.680403    25.570973
 C     9.319111     7.888600    26.253267
 C     9.152648     6.482304    26.203173
 C    11.153972     6.648664    27.590371
 C    11.123759     6.439574    29.156319
 C    10.199250     5.528116    29.730995
 C    10.084525     5.338960    31.118349
 C    10.889727     6.086757    31.997648
 C    11.805117     7.000870    31.461875
 C    11.958131     7.180335    30.056429
 C    13.014404     8.141725    29.644963
 C    13.788217     8.089350    28.537108
 C    13.766944     7.057714    27.467262
 C    15.023900     6.782641    26.854659
 C    15.169946     5.796268    25.871637
 C    14.034673     5.070537    25.465173
 C    12.781867     5.352471    26.035005
 C    12.602406     6.339069    27.040051
 C    10.590469     8.220765    27.121767
 C    10.031056     9.003865    28.372887
 C     8.857646     8.424173    28.939409
 C     8.197469     8.954855    30.056651
 C    12.537979     8.648904    23.819475
 C    11.697851     8.223827    24.858294
 C    11.602722     8.893070    26.114089
 H    10.627096     3.630827    27.364355
 H     8.756181     2.606099    26.109308
 H     9.533928     4.960928    29.072827
 H     9.350757     4.621700    31.509392
 H    10.801132     5.960549    33.084691
 H    12.441884     7.593002    32.132717
 H    13.248871     8.911031    30.394777
 H    14.606153     8.819205    28.451541
 H    15.898765     7.358815    27.184442
 H    16.152973     5.597398    25.424928
 H    14.116440     4.297752    24.689344
 H    11.910110     4.799152    25.672495
 H     8.447995     7.517063    28.482179
 H     7.299287     8.458145    30.446598
 H    11.085825     7.330738    24.692446
 H    14.004789    10.146313    23.201151
 C     8.697769    10.120086    30.669145
 C     9.845710    10.713829    30.138314
 C    10.532271    10.190817    28.996330
 C    11.715593    10.988179    28.593124
 C    12.487134    10.933800    27.484117
 C    12.415379    10.058184    26.289644
 C    13.269036    10.472854    25.218014
 C    13.338823     9.793243    23.999282
 H     8.474528     9.776400    25.577055
 H     8.198999    10.555106    31.545028
 H    10.247452    11.623814    30.603269
 H    11.967327    11.776477    29.316928
 H    13.288606    11.683404    27.417665
 H    13.885847    11.367856    25.373493
