   66
FINAL HEAT OF FORMATION = -2133.974808
Cl     9.418735     8.718493     3.476814
Cl     4.356636    10.479508    -0.172587
 C     7.052022    10.590800     0.624710
 C     7.724368    11.910252     0.116538
 C     9.155892    11.256870     0.803264
 C     8.181725    10.193444     1.422755
 C     8.077551     9.152838     2.330308
 C     6.839361     8.388716     2.420991
 C     6.690180     7.269200     3.310941
 C     5.502117     6.554449     3.370493
 C     4.395510     6.924351     2.545049
 C     4.499491     8.002548     1.677653
 C     5.714558     8.765388     1.584380
 C     5.841854     9.922607     0.707210
 C     6.991550    13.119124     0.859193
 C     6.165315    12.891329     1.994286
 C     5.455437    13.935704     2.616040
 C     5.541503    15.249634     2.120638
 C     6.338720    15.497651     0.989048
 C     7.043807    14.449582     0.366357
 C     7.696042    12.251061    -1.411706
 C     6.705174    11.707748    -2.267152
 C     6.635446    12.074576    -3.625152
 C     7.549209    13.000449    -4.162064
 C     8.529441    13.563449    -3.323316
 C     8.598970    13.197046    -1.965485
 C     9.958293    12.203525     1.857357
 C    10.234335    13.631314     1.263679
 C    11.347863    11.635910     2.326742
 C     9.143238    12.382025     3.191873
 C    10.084623    10.414803    -0.278137
 C     9.202479     9.573416    -1.279699
 C    11.055086    11.295990    -1.141710
 C    10.985376     9.321407     0.426003
 H     7.547183     6.994818     3.939256
 H     5.408416     5.699596     4.053837
 H     3.460214     6.351176     2.600863
 H     3.655945     8.300990     1.042039
 H     6.064321    11.880538     2.403257
 H     4.829284    13.714126     3.490724
 H     4.986163    16.065263     2.602333
 H     6.408532    16.512320     0.574473
 H     7.622171    14.677291    -0.534553
 H     5.970848    11.000873    -1.865568
 H     5.857810    11.633800    -4.263464
 H     7.494462    13.285812    -5.220927
 H     9.244184    14.295236    -3.723273
 H     9.361725    13.658157    -1.329415
 H     9.299544    14.163980     1.051883
 H    10.833654    13.578798     0.345136
 H    10.799788    14.217960     2.003028
 H    12.088455    11.619332     1.517858
 H    11.732458    12.301823     3.113907
 H    11.244839    10.630236     2.754930
 H     9.709035    13.044538     3.862924
 H     9.014599    11.415376     3.697986
 H     8.160016    12.831043     3.019284
 H     8.624055     8.805165    -0.748491
 H     8.516797    10.194697    -1.863880
 H     9.876970     9.062437    -1.981674
 H    10.507158    11.947310    -1.832018
 H    11.687025    10.623286    -1.741145
 H    11.717487    11.909360    -0.517679
 H    11.265547     8.575218    -0.331627
 H    11.913319     9.737860     0.829173
 H    10.454691     8.802477     1.232107
