   62
FINAL HEAT OF FORMATION = -6461.318163
Br     6.146937     2.636298     5.963813
Br     0.127381    -0.316448     6.540247
 C     4.009831     0.777806     3.575914
 C     2.468527     0.109505     3.698458
 C     2.526709     0.571887     5.188873
 C     1.818243     0.533404     6.379945
 C     2.438717     1.176444     7.538583
 C     1.783635     1.207564     8.819190
 C     2.359031     1.832394     9.915648
 C     3.633223     2.466914     9.791275
 C     4.299023     2.456582     8.574598
 C     3.739267     1.817385     7.413524
 C     4.454765     1.791990     6.137508
 C     3.833115     1.138711     5.084610
 C     5.124242    -0.258251     3.249159
 C     5.040220    -1.049513     2.074117
 C     6.048027    -1.976781     1.753458
 C     7.164008    -2.131273     2.599989
 C     7.262846    -1.348178     3.764740
 C     6.252469    -0.419925     4.086277
 C     4.127143     2.063623     2.690767
 C     3.397897     3.228855     3.045920
 C     3.500974     4.408204     2.287909
 C     4.341773     4.453287     1.157711
 C     5.077192     3.309251     0.797963
 C     4.972307     2.127080     1.557448
 C     2.392287    -1.449897     3.584720
 C     3.061495    -2.257514     4.541501
 C     2.992227    -3.660320     4.482040
 C     2.246164    -4.290868     3.466149
 C     1.570885    -3.503863     2.515456
 C     1.641849    -2.097938     2.574939
 C     1.400914     0.810033     2.808556
 C     0.211996     1.340917     3.360606
 C    -0.755253     1.952650     2.538471
 C    -0.552074     2.044014     1.149168
 C     0.625061     1.513730     0.584481
 C     1.589965     0.902264     1.405219
 H     0.803715     0.717882     8.898249
 H     1.837301     1.842788    10.882056
 H     4.083046     2.961209    10.662809
 H     5.280230     2.937467     8.463687
 H     4.173391    -0.944890     1.409587
 H     5.960372    -2.581446     0.840812
 H     7.950602    -2.855914     2.351011
 H     8.130867    -1.456291     4.429017
 H     6.353520     0.199086     4.986362
 H     2.744066     3.210297     3.927244
 H     2.925400     5.296008     2.582498
 H     4.425720     5.374990     0.566690
 H     5.741769     3.333991    -0.076154
 H     5.560683     1.247675     1.269013
 H     3.641113    -1.780205     5.341992
 H     3.519923    -4.263103     5.233347
 H     2.188626    -5.386540     3.420563
 H     0.979965    -3.983133     1.723327
 H     1.100854    -1.499342     1.832123
 H     0.029959     1.256984     4.439259
 H    -1.671750     2.357250     2.988741
 H    -1.305177     2.522734     0.509248
 H     0.794205     1.577534    -0.498820
 H     2.504984     0.500044     0.952587
