   54
FINAL HEAT OF FORMATION = -1291.620281
 C     9.115835     5.481537    10.821366
 C     7.727189     6.204305    11.468961
 C     7.507511     4.261976     9.168633
 C     6.391146     4.842970     9.689303
 C     9.126936     3.928286    10.939489
 C     9.910831     3.185561    11.840316
 H    10.572728     3.701761    12.548832
 C     9.838903     1.774114    11.829527
 H    10.452515     1.193666    12.531515
 C     8.987244     1.109529    10.928004
 H     8.938307     0.012295    10.928222
 C     8.191397     1.845348    10.020323
 H     7.522696     1.325760     9.320962
 C     8.262273     3.248344    10.025219
 C     9.356313     5.820526     9.320030
 C    10.336753     6.702099     8.830998
 H    10.999840     7.229887     9.529795
 C    10.460417     6.905916     7.437923
 H    11.227403     7.592737     7.055511
 C     9.608358     6.236851     6.540095
 H     9.712398     6.402759     5.459370
 C     8.616245     5.351279     7.019847
 H     7.947841     4.834089     6.318428
 C     8.491968     5.143100     8.403554
 C     6.711250     5.185610    12.066291
 C     6.487456     4.967270    13.437379
 H     7.065289     5.527182    14.185154
 C     5.518535     4.022630    13.845150
 H     5.342034     3.853305    14.915853
 C     4.781212     3.298548    12.890242
 H     4.030907     2.566359    13.217743
 C     5.000060     3.506281    11.509084
 H     4.428091     2.936325    10.764609
 C     5.959796     4.446697    11.099218
 C     6.940681     7.077747    10.446635
 C     6.913872     8.483651    10.427411
 H     7.493208     9.055068    11.165259
 C     6.140713     9.154180     9.452708
 H     6.117879    10.252138     9.438648
 C     5.402721     8.425646     8.501704
 H     4.805546     8.956505     7.748121
 C     5.424997     7.012105     8.508294
 H     4.853263     6.444501     7.761847
 C     6.189481     6.341420     9.477437
 C     9.871016     6.306043    11.891895
 C    11.153585     6.574860    12.389209
 H    12.063356     6.114360    11.980442
 C    11.225171     7.490250    13.469881
 H    12.204995     7.738917    13.900421
 C    10.066862     8.093276    14.009983
 H    10.173839     8.796347    14.847540
 C     8.774034     7.813664    13.498773
 H     7.883133     8.290576    13.929678
 C     8.715171     6.907747    12.430864
