   23
FINAL HEAT OF FORMATION = -7289.390421
 C     7.760000     5.614700    10.042500
 C     7.949400     6.888200    10.573400
 C     7.042200     7.891600    10.258900
 C     5.958600     7.578300     9.415900
 C     5.850400     6.316600     8.901100
 N     6.735100     5.369000     9.224400
 C     6.543100     3.993300     8.732000
 C     7.610400     2.918300     8.679800
 C     5.555100     2.957200     9.362400
 C     6.055400     3.610000     7.328300
 C     6.291700     2.305100     8.151400
 I     6.065100     0.309800     7.473800
 H     8.370500     4.908600    10.266300
 H     8.695100     7.068600    11.150300
 H     7.153100     8.779800    10.607000
 H     5.301300     8.245300     9.205700
 H     5.131100     6.109900     8.300600
 H     7.925200     2.588500     9.524000
 H     8.310100     3.042700     8.034500
 H     4.617700     3.133300     9.251700
 H     5.782100     2.622500    10.234000
 H     6.663700     3.775000     6.604700
 H     5.143400     3.824600     7.118200
