   72
FINAL HEAT OF FORMATION = -1204.600605
 N    10.601170     9.070593     2.231707
 N     8.442305     6.396686     1.541670
 C    12.700889    11.742117    -0.653290
 H    13.054283    11.504821    -1.665606
 C    11.649781    10.982981    -0.096984
 C     6.880725     6.036748    -0.379948
 C    11.188828    11.280716     1.216776
 C    10.014288     8.378826     3.330751
 C    10.056116    10.435161     1.832146
 H     9.624442    10.940012     2.716283
 H     9.239981    10.277189     1.099236
 C    13.309681    12.794015     0.066513
 B     7.693009     6.725160     4.139415
 C     8.760693     6.699171     2.873669
 B     8.354344     8.362624     3.570376
 C     6.129633     3.909986    -1.330333
 H     5.766546     2.883725    -1.185230
 C    11.796298    12.331785     1.959952
 C     7.062117     6.551912    -1.692657
 C    12.844716    13.073338     1.369611
 H    13.312088    13.883473     1.945086
 C     7.194682     6.902057     0.859739
 H     7.318497     7.966528     0.577438
 H     6.379806     6.836592     1.605011
 B     9.497755     8.972279     4.869606
 B    10.379866     6.614061     3.370028
 C     6.408568     4.704171    -0.198567
 B     8.092896     8.021594     5.306790
 C     6.769292     5.727404    -2.803437
 H     6.908113     6.129663    -3.815680
 C     6.304920     4.405701    -2.642367
 B     9.081868     5.554344     4.122698
 B    10.887119     7.845847     4.650395
 C    14.439255    13.627217    -0.563764
 H    14.020206    14.447781    -1.172251
 H    15.064419    13.004232    -1.221943
 H    15.076946    14.072828     0.214558
 C    11.012778     9.848407    -0.919744
 H    11.620368     9.632640    -1.810528
 H    10.000406    10.132404    -1.255294
 H    10.924410     8.929799    -0.317787
 B     8.621282     6.326361     5.634045
 C     7.557402     7.989337    -1.945939
 H     7.666980     8.163460    -3.026104
 H     8.534339     8.169618    -1.469046
 H     6.844715     8.733017    -1.551239
 B     9.725597     7.645546     6.007624
 C     6.192979     4.123507     1.210133
 H     5.922804     3.059660     1.147799
 H     5.381374     4.656405     1.734368
 H     7.105978     4.223946     1.818771
 B    10.359637     6.209728     5.123075
 C     6.003877     3.515351    -3.860662
 H     6.737174     2.693786    -3.931416
 H     6.048564     4.099799    -4.791397
 H     5.002136     3.063604    -3.775746
 C    11.342407    12.688445     3.389028
 H    11.971238    13.495226     3.792282
 H    11.419024    11.821031     4.065058
 H    10.294648    13.033074     3.400070
 H     7.675013     9.049213     2.928218
 H     8.978927     4.444845     3.794669
 H    11.164174     6.226759     2.605498
 H    10.039808     7.888752     7.097617
 H     6.591288     6.432760     3.920883
 H    11.997827     8.180428     4.709570
 H     8.140537     5.680133     6.469025
 H     7.229609     8.502893     5.913115
 H     9.620339    10.115255     5.035377
 H    11.127818     5.490571     5.610020
 H    11.649040     9.072407     2.294749
 H     9.258862     6.222593     0.912010
