   55
FINAL HEAT OF FORMATION = -1009.128452
 B     0.383938     0.641551    12.467004
 H    -0.755058     0.798371    12.320906
 B     1.141163     0.067579    13.964299
 H     0.464387    -0.250067    14.852241
 B     2.606947     1.088408    14.281853
 H     2.883265     1.381176    15.369830
 B     2.856125     2.272821    12.966785
 H     3.151229     3.379901    13.141676
 B     3.029861     1.427349    11.418644
 H     3.560334     1.963055    10.536045
 B     1.522235     0.463570    11.110217
 H     1.108711     0.374118    10.030179
 B     1.391701    -0.784074    12.408479
 H     0.906048    -1.816435    12.199060
 B     3.775026     0.798848    12.933690
 H     4.921019     0.837492    13.108903
 B     2.994236    -0.318060    11.763861
 H     3.619172    -1.054604    11.122166
 B     2.755863    -0.541079    13.541072
 H     3.225725    -1.423482    14.128747
 N     0.305957     2.857130    14.008709
 N     0.795688     3.285167    11.581334
 C     1.204385     1.774143    13.557183
 C     1.462125     1.998549    11.908174
 C    -0.205675     3.525391    12.740201
 H    -0.320860     4.614526    12.910197
 H    -1.197589     3.091921    12.477305
 C     0.080487     3.259198    10.233646
 H    -0.739565     2.509383    10.222073
 H     0.839304     2.958719     9.484312
 C    -0.476592     4.660492     9.904618
 C     0.384444     5.783309     9.903224
 H     1.446188     5.646823    10.150704
 C    -0.116323     7.061906     9.596740
 H     0.558231     7.928949     9.599443
 C    -1.481270     7.230557     9.283883
 H    -1.871278     8.228788     9.042989
 C    -2.342852     6.116634     9.281130
 H    -3.406671     6.243361     9.038472
 C    -1.842871     4.836474     9.592936
 H    -2.517361     3.969040     9.591251
 C     0.940020     3.829277    15.000375
 H     1.760840     4.416279    14.539623
 H     1.368398     3.205329    15.808819
 C    -0.136289     4.779241    15.565943
 C     0.036523     6.179542    15.498111
 H     0.941302     6.594489    15.032645
 C    -0.942111     7.044410    16.027738
 H    -0.797856     8.131943    15.972081
 C    -2.103121     6.515150    16.623391
 H    -2.867327     7.188975    17.033980
 C    -2.283455     5.117734    16.691226
 H    -3.188472     4.702164    17.154949
 C    -1.304443     4.253741    16.167518
 H    -1.441939     3.164627    16.213818
