   54
FINAL HEAT OF FORMATION =  -971.489634
 B     1.068378     0.000012     8.078226
 B     0.712778     1.482437     9.108010
 B    -1.083532     1.479835     9.264717
 B    -1.599954    -0.000033     8.308344
 B     1.331571     0.000017     9.852663
 B    -0.064455     0.878771    10.597587
 B    -1.565179    -0.000029    10.106162
 C    -0.299452     1.053827     7.824764
 N    -0.451758     1.676800     6.556192
 C     0.654120     2.562771     6.033120
 H     1.575210     1.947158     5.995457
 H     0.841011     3.414385     6.721586
 C     0.287723     3.093209     4.631006
 C     0.402060     4.470321     4.337161
 H     0.743603     5.166268     5.115806
 C     0.082349     4.952915     3.052574
 H     0.175853     6.025172     2.833194
 C    -0.360614     4.063594     2.054144
 H    -0.612865     4.440319     1.053673
 C    -0.481611     2.688644     2.342508
 H    -0.828274     1.992739     1.566551
 C    -0.156833     2.205739     3.623643
 H    -0.252039     1.136193     3.854976
 H     1.920450     0.000024     7.291115
 H    -2.529216    -0.000043    10.750273
 H     1.349302     2.443246     8.969973
 H    -2.561920    -0.000049     7.657844
 H     2.389429     0.000034    10.327088
 H    -1.732835     2.441910     9.220709
 H     0.021745     1.492774    11.578055
 H    -1.401669     2.106803     6.440254
 B     0.712824    -1.482424     9.108012
 B    -1.083485    -1.479880     9.264722
 B    -0.064426    -0.878780    10.597589
 C    -0.299419    -1.053850     7.824767
 N    -0.451692    -1.676829     6.556192
 C     0.654205    -2.562815     6.033171
 H     1.575309    -1.947221     5.995583
 H     0.841023    -3.414448     6.721633
 C     0.287885    -3.093214     4.631024
 C     0.401677    -4.470400     4.337318
 H     0.742755    -5.166431     5.116091
 C     0.082019    -4.952962     3.052705
 H     0.175098    -6.025278     2.833434
 C    -0.360342    -4.063530     2.054109
 H    -0.612548    -4.440227     1.053616
 C    -0.480790    -2.688501     2.342331
 H    -0.826978    -1.992508     1.566240
 C    -0.156068    -2.205632     3.623492
 H    -0.250842    -1.136022     3.854709
 H     1.349380    -2.443213     8.969978
 H    -1.732757    -2.441976     9.220717
 H     0.021794    -1.492778    11.578058
 H    -1.401598    -2.106839     6.440235
