   28
scf done:  -443.062615
 B     0.373999     6.651572     5.258423
 H     0.851789     6.084993     6.175486
 B    -1.984634     7.597906     3.933636
 H    -3.153016     7.654855     3.787712
 B    -1.205911     6.172148     4.632332
 H    -1.829853     5.233118     4.976827
 B    -0.941608     8.110024     2.577800
 H    -1.364813     8.464186     1.536289
 B     0.272874     5.892588     3.669589
 H     0.624988     4.819839     3.331489
 B     0.556068     8.406894     4.990086
 H     1.167104     9.101795     5.721014
 B     1.396520     7.250104     3.946645
 H     2.550931     7.054332     3.833055
 B     0.616134     8.676036     3.239876
 H     1.223922     9.480824     2.633986
 B    -1.024850     7.751159     5.411419
 H    -1.549716     7.972434     6.444061
 B    -0.892932     8.972532     4.114593
 H    -1.318544    10.067753     4.212893
 C     0.485160     7.159940     2.542523
 C    -1.177685     6.474946     2.985665
 N     1.009985     6.834781     1.300733
 N    -1.745329     5.673280     1.993314
 H    -1.871277     4.713439     2.273459
 H    -2.587905     6.058285     1.596538
 H     0.512913     7.226343     0.517598
 H     1.208784     5.856391     1.170258
