   28
scf done:  -443.027739
 B     0.373296     6.650566     5.256999
 H     0.853280     6.082834     6.174678
 B    -1.984856     7.598116     3.933155
 H    -3.155142     7.658286     3.787630
 B    -1.207846     6.172528     4.634540
 H    -1.832986     5.232565     4.980993
 B    -0.940137     8.109960     2.576920
 H    -1.366269     8.466119     1.534999
 B     0.268569     5.892236     3.667831
 H     0.622274     4.817675     3.329803
 B     0.556503     8.406230     4.990227
 H     1.169846     9.100823     5.722609
 B     1.395541     7.249064     3.944054
 H     2.551827     7.051163     3.831899
 B     0.616542     8.678340     3.240976
 H     1.225408     9.484905     2.634781
 B    -1.024767     7.751747     5.411795
 H    -1.550193     7.974194     6.446088
 B    -0.892446     8.972802     4.114602
 H    -1.319612    10.069416     4.213626
 C     0.486179     7.162727     2.540260
 C    -1.180775     6.473618     2.986548
 N     1.008751     6.837130     1.299312
 N    -1.750244     5.674995     1.993794
 H    -1.864316     4.709861     2.266114
 H    -2.599351     6.056886     1.604138
 H     0.503997     7.214002     0.512361
 H     1.240029     5.863712     1.176570
