   28
scf done:  -443.062445
 B     0.373456     6.650909     5.257691
 H     0.852326     6.084151     6.174091
 B    -1.983843     7.598034     3.932170
 H    -3.152191     7.656132     3.786151
 B    -1.206894     6.172635     4.633418
 H    -1.832103     5.234336     4.977567
 B    -0.939744     8.111855     2.577239
 H    -1.364266     8.466162     1.536343
 B     0.270137     5.892157     3.669147
 H     0.623082     4.819917     3.330092
 B     0.556352     8.406334     4.990561
 H     1.168622     9.099818     5.721808
 B     1.395173     7.249438     3.944425
 H     2.549508     7.052782     3.830789
 B     0.616429     8.678116     3.241546
 H     1.225446     9.482017     2.635805
 B    -1.024968     7.751440     5.411402
 H    -1.550401     7.972900     6.443718
 B    -0.892368     8.973229     4.115213
 H    -1.319067    10.067955     4.214331
 C     0.484063     7.162070     2.541402
 C    -1.177929     6.474799     2.985800
 N     1.008710     6.837230     1.299681
 N    -1.747004     5.675837     1.992095
 H    -1.862936     4.712977     2.266153
 H    -2.596044     6.056947     1.605405
 H     0.498302     7.209358     0.515691
 H     1.231253     5.862962     1.177564
