   68
scf done: -1614.204368
 C     1.523464    -0.000644     1.115827
 C     2.384043    -0.000620     2.210033
 C     3.804891    -0.000988     2.058370
 C     4.385689    -0.001497     0.799520
 C     3.494988    -0.001665    -0.280707
 C     4.137759    -0.001515    -1.525365
 C     3.312446    -0.000967    -2.639666
 C     1.890276    -0.000590    -2.498074
 C     1.296214    -0.000659    -1.249119
 C     2.135370    -0.001174    -0.136920
 C     5.713925    -0.001421     0.171052
 C     5.568064    -0.001433    -1.187480
 C    -0.003117    -0.000109     0.950937
 C    -0.613915     1.257022     1.595547
 C     0.193324     2.199835     2.243467
 C    -0.308274     3.382198     2.768827
 C    -1.657687     3.681509     2.639116
 C    -2.477468     2.770136     2.000740
 C    -1.992593     1.551162     1.503598
 C    -2.985619     0.671020     0.916463
 C    -2.986044    -0.669581     0.916401
 C    -1.993501    -1.550399     1.503296
 C    -2.478982    -2.769299     2.000049
 C    -1.659693    -3.681207     2.638269
 C    -0.310162    -3.382510     2.768291
 C     0.192039    -2.200266     2.243271
 C    -0.614679    -1.256951     1.595394
 C    -0.167004     0.000031    -0.797548
 C    -0.728383     1.348374    -1.285316
 C     0.098753     2.449594    -1.008623
 C    -0.225747     3.755830    -1.332395
 C    -1.422150     4.020118    -1.985215
 C    -2.248552     2.958142    -2.288461
 C    -1.937301     1.622622    -1.960270
 C    -2.944271     0.670904    -2.387697
 C    -2.944981    -0.667828    -2.387792
 C    -1.939020    -1.620630    -1.960435
 C    -2.251614    -2.955788    -2.288728
 C    -1.426247    -4.018630    -1.985642
 C    -0.229509    -3.755619    -1.332951
 C     0.096326    -2.449726    -1.009081
 C    -0.729776    -1.347664    -1.285518
 H     1.986786    -0.000211     3.220650
 H     4.408626    -0.000731     2.961571
 H     3.722373    -0.000663    -3.645744
 H     1.281375    -0.000068    -3.396329
 H     6.660076    -0.001354     0.697373
 H     1.258588     2.032410     2.312786
 H     0.367741     4.078043     3.255226
 H    -2.063478     4.610743     3.025109
 H    -3.536904     2.981518     1.889927
 H    -3.866198     1.168236     0.518331
 H    -3.866962    -1.166194     0.518261
 H    -3.538502    -2.980166     1.889050
 H    -2.065916    -4.610403     3.023903
 H     0.365417    -4.078737     3.254746
 H     1.257362    -2.033289     2.312817
 H     1.040945     2.281473    -0.503701
 H     0.456712     4.557422    -1.071118
 H    -1.703724     5.032561    -2.254753
 H    -3.183537     3.144222    -2.808599
 H    -3.832535     1.138732    -2.805511
 H    -3.833761    -1.134670    -2.805604
 H    -3.186781    -3.140899    -2.808880
 H    -1.708933    -5.030769    -2.255171
 H     0.452177    -4.557921    -1.071840
 H     1.038753    -2.282588    -0.504252
 H     6.382601    -0.001390    -1.901020
