   66
scf done: -1538.101956
 C    -0.000244     4.216952     1.562215
 C     0.000098     4.690845     0.269248
 C     0.000635     4.102949    -2.190717
 H    -0.000411     4.921980     2.387574
 H     0.000198     5.759349     0.076245
 H     0.000775     5.144097    -2.498561
 C    -0.000150     1.913598     0.829631
 C    -0.000373     2.833297     1.857532
 C     0.000312     3.780793    -0.812387
 C     0.000785     3.098781    -3.133430
 C     0.000608     1.729796    -2.775822
 C     0.000297     1.392553    -1.446224
 C     0.000171     2.406724    -0.482937
 C    -0.000067     0.381467     0.863378
 C    -1.258899    -0.136224     1.592122
 C    -2.209443     0.748247     2.116881
 C    -3.389357     0.320074     2.708824
 C    -3.681036    -1.035328     2.774648
 C    -2.765244    -1.931448     2.257022
 C    -1.549212    -1.515097     1.694633
 C    -0.669765    -2.578942     1.247059
 C     0.670293    -2.578794     1.247021
 C     1.549565    -1.514780     1.694506
 C     1.258923    -0.135961     1.592126
 C    -0.000009     0.001810    -0.807997
 C    -1.347757    -0.618489    -1.232127
 C    -2.449578     0.238917    -1.076470
 C    -3.754330    -0.123811    -1.362662
 C    -4.017297    -1.396179    -1.852247
 C    -2.955106    -2.256415    -2.035437
 C    -1.620784    -1.905770    -1.742400
 C    -0.669796    -2.962540    -2.027402
 C     0.668656    -2.962759    -2.027543
 C     1.620029    -1.906347    -1.742505
 C     1.347465    -0.619032    -1.232064
 H    -0.000647     2.513751     2.894878
 H     0.001027     3.360987    -4.186786
 H     0.000720     0.966545    -3.546915
 H    -2.052712     1.813653     2.031227
 H    -4.089653     1.055292     3.092110
 H    -4.607781    -1.387412     3.215492
 H    -2.970888    -2.997097     2.295852
 H    -1.167347    -3.504935     0.971139
 H     1.168063    -3.504688     0.971068
 H    -2.282309     1.240056    -0.701410
 H    -4.556053     0.588505    -1.199821
 H    -5.028570    -1.709856    -2.088816
 H    -3.139414    -3.251987    -2.428173
 H    -1.137782    -3.899359    -2.320383
 H     1.136282    -3.899724    -2.320636
 H     2.282708     1.239099    -0.701130
 C     2.765769    -1.930886     2.256699
 C     3.681401    -1.034580     2.774304
 C     3.389337     0.320746     2.708717
 C     2.209248     0.748689     2.116946
 C     2.954222    -2.257454    -2.035561
 C     4.016738    -1.397658    -1.852210
 C     3.754246    -0.125257    -1.362452
 C     2.449621     0.237936    -1.076280
 H     2.971671    -2.996489     2.295432
 H     4.608312    -1.386465     3.214957
 H     4.089472     1.056109     3.092021
 H     2.052222     1.814068     2.031487
 H     3.138153    -3.253038    -2.428456
 H     5.027895    -1.711704    -2.088790
 H     4.556236     0.586718    -1.199456
