   70
scf done: -1615.431332
 H    -6.078288    -0.875660    -1.685592
 C    -4.326301     0.000599     0.854575
 C    -3.472358     0.000645    -0.249840
 C    -4.099160     0.000625    -1.499834
 C    -3.285028     0.000368    -2.614018
 C    -5.743821     0.000422     0.319189
 C    -5.593250     0.000910    -1.243718
 H    -3.703721     0.000274    -3.616195
 H    -6.302632    -0.876769     0.661496
 H    -6.303261     0.876986     0.662047
 H    -6.077623     0.878224    -1.684865
 H    -0.414302    -4.558884    -1.048153
 C    -1.471890     0.000269     1.129609
 C    -2.312376     0.000305     2.233998
 C    -3.734900     0.000433     2.101685
 C    -1.862636     0.000180    -2.477639
 C    -1.267224     0.000240    -1.233325
 C    -2.095962     0.000443    -0.116758
 C     0.054036     0.000069     0.951598
 C     0.673691     1.255582     1.592179
 C    -0.124687     2.197287     2.252628
 C     0.383709     3.377899     2.775415
 C     1.731545     3.677347     2.630301
 C     2.543066     2.767083     1.979948
 C     2.051526     1.549544     1.485831
 C     3.037486     0.670004     0.885910
 C     3.037334    -0.670537     0.885950
 C     2.051176    -1.549805     1.485958
 C     2.542421    -2.767417     1.980173
 C     1.730653    -3.677488     2.630491
 C     0.382859    -3.377771     2.775465
 C    -0.125242    -2.197067     2.252605
 C     0.673402    -1.255532     1.592231
 C     0.201673    -0.000010    -0.795559
 C     0.761721     1.347400    -1.287448
 C    -0.059080     2.450111    -0.998147
 C     0.264665     3.756503    -1.321374
 C     0.262850    -3.756546    -1.321011
 C    -0.060271    -2.449967    -0.997942
 C     0.761118    -1.347709    -1.287280
 H    -1.899231     0.000223     3.238593
 H    -4.331262     0.000379     3.009434
 H    -1.189073     2.029542     2.333088
 H    -0.286039     4.072595     3.272199
 H     2.142343     4.605533     3.013649
 H     3.601209     2.978246     1.856702
 H     3.913134     1.167253     0.477007
 H     3.912874    -1.168014     0.477081
 H     3.600533    -2.978799     1.857038
 H     2.141218    -4.605748     3.013911
 H    -0.287075    -4.072353     3.272157
 H    -1.189602    -2.029101     2.332944
 H    -0.995310     2.280825    -0.482754
 H    -0.412062     4.559195    -1.048501
 H    -0.996450    -2.280132    -0.482630
 H     1.731790    -5.033693    -2.257853
 C     1.453455     4.020177    -1.988563
 C     2.272949     2.957086    -2.305603
 C     1.962659     1.621342    -1.976562
 C     2.962071     0.668641    -2.419268
 C     2.961819    -0.670111    -2.419097
 C     1.961952    -1.622308    -1.976305
 C     2.271625    -2.958238    -2.305172
 C     1.451572    -4.020883    -1.988073
 H    -1.255082    -0.000056    -3.377306
 H     1.734195     5.032807    -2.258471
 H     3.201499     3.142213    -2.837577
 H     3.844717     1.135575    -2.849964
 H     3.844278    -1.137515    -2.849666
 H     3.200133    -3.143892    -2.837035
