  212
scf done: -3349.151528
 C     0.834747    -0.005364     0.011750
 C    -0.834747     0.005364    -0.011750
 C     1.471196     0.321279    -1.384123
 C    -1.471196    -0.321279     1.384123
 C    -1.435668     1.391681    -0.430461
 C     1.435668    -1.391681     0.430461
 C     1.425275     1.048522     1.009542
 C    -1.425275    -1.048522    -1.009542
 C     1.043027     1.098384     2.357973
 C    -1.043027    -1.098384    -2.357973
 C    -1.081008    -1.434519     2.151394
 C     1.081008     1.434519    -2.151394
 C     1.057888    -2.592520    -0.186502
 C    -1.057888     2.592520     0.186502
 C     2.476515     1.885797     0.626502
 C    -2.476515    -1.885797    -0.626502
 C    -2.577750     0.394411     1.838714
 C     2.577750    -0.394411    -1.838714
 C     2.518252    -1.455955     1.313347
 C    -2.518252     1.455955    -1.313347
 C     1.621259     1.981000     3.272003
 C    -1.621259    -1.981000    -3.272003
 C    -1.732297    -1.794363     3.328261
 C     1.732297     1.794363    -3.328261
 C     1.694229    -3.807234     0.078611
 C    -1.694229     3.807234    -0.078611
 C     3.112368     2.758842     1.515883
 C    -3.112368    -2.758842    -1.515883
 C    -3.285955     0.046944     2.998032
 C     3.285955    -0.046944    -2.998032
 C     3.204259    -2.644148     1.585936
 C    -3.204259     2.644148    -1.585936
 C     2.653581     2.811830     2.828910
 C    -2.653581    -2.811830    -2.828910
 C    -2.843844    -1.043636     3.731970
 C     2.843844     1.043636    -3.731970
 C     2.771272    -3.812916     0.966665
 C    -2.771272     3.812916    -0.966665
 H     0.280336     0.423116     2.712160
 H    -0.280336    -0.423116    -2.712160
 H    -0.250743    -2.034449     1.817410
 H     0.250743     2.034449    -1.817410
 H     0.253968    -2.584310    -0.905908
 H    -0.253968     2.584310     0.905908
 H     2.839024     1.846588    -0.390396
 H    -2.839024    -1.846588     0.390396
 H    -2.932634     1.239768     1.267689
 H     2.932634    -1.239768    -1.267689
 H     2.867985    -0.548579     1.784833
 H    -2.867985     0.548579    -1.784833
 C     1.174133     1.963879     4.738727
 C    -1.174133    -1.963879    -4.738727
 C    -1.299997    -2.993670     4.177114
 C     1.299997     2.993670    -4.177114
 C     1.206295    -5.086483    -0.610283
 C    -1.206295     5.086483     0.610283
 C     4.322302     3.566944     1.036756
 C    -4.322302    -3.566944    -1.036756
 C    -4.524526     0.856788     3.387927
 C     4.524526    -0.856788    -3.387927
 C     4.417961    -2.614255     2.519220
 C    -4.417961     2.614255    -2.519220
 H     3.119699     3.494290     3.526035
 H    -3.119699    -3.494290    -3.526035
 H    -3.370292    -1.330410     4.634359
 H     3.370292     1.330410    -4.634359
 H     3.284782    -4.742207     1.170275
 H    -3.284782     4.742207    -1.170275
 C     5.131845    -0.390184    -4.711556
 C    -5.131845     0.390184     4.711556
 C    -5.021818     4.002560    -2.735980
 C     5.021818    -4.002560     2.735980
 C     4.838081     4.532602     2.104756
 C    -4.838081    -4.532602    -2.104756
 C     5.588464    -0.702353    -2.291439
 C    -5.588464     0.702353     2.291439
 C    -5.501437     1.713112    -1.908925
 C     5.501437    -1.713112     1.908925
 C     5.454209     2.588371     0.687808
 C    -5.454209    -2.588371    -0.687808
 C     4.159024    -2.340390    -3.529259
 C    -4.159024     2.340390     3.529259
 C    -4.011585     2.053938    -3.887812
 C     4.011585    -2.053938     3.887812
 C     3.969532     4.386644    -0.211011
 C    -3.969532    -4.386644     0.211011
 C     1.066676     2.548311    -5.628216
 C    -1.066676    -2.548311     5.628216
 C    -2.058648     6.305001     0.252575
 C     2.058648    -6.305001    -0.252575
 C     1.728255     3.152156     5.528413
 C    -1.728255    -3.152156    -5.528413
 C     0.009311     3.632139    -3.667150
 C    -0.009311    -3.632139     3.667150
 C     0.239906     5.371235     0.185208
 C    -0.239906    -5.371235    -0.185208
 C    -0.355225     2.002309     4.847517
 C     0.355225    -2.002309    -4.847517
 C     2.407582     4.057018    -4.154903
 C    -2.407582    -4.057018     4.154903
 C    -1.246638     4.909566     2.133460
 C     1.246638    -4.909566    -2.133460
 C     1.686103     0.672609     5.391476
 C    -1.686103    -0.672609    -5.391476
 H     0.753485     3.403474    -6.236966
 H    -0.753485    -3.403474     6.236966
 H    -1.670394     7.186384     0.772615
 H     1.670394    -7.186384    -0.772615
 H     1.337282     3.125308     6.550389
 H    -1.337282    -3.125308    -6.550389
 H     1.970210     2.133296    -6.083422
 H    -1.970210    -2.133296     6.083422
 H    -3.102828     6.176063     0.555449
 H     3.102828    -6.176063    -0.555449
 H     2.820136     3.129325     5.598892
 H    -2.820136    -3.129325    -5.598892
 H     0.283342     1.786824    -5.685622
 H    -0.283342    -1.786824     5.685622
 H    -2.035269     6.520075    -0.820498
 H     2.035269    -6.520075     0.820498
 H     1.431850     4.107133     5.082372
 H    -1.431850    -4.107133    -5.082372
 H     2.126535     4.911891    -4.780039
 H    -2.126535    -4.911891     4.780039
 H    -0.900412     5.824073     2.627958
 H     0.900412    -5.824073    -2.627958
 H     1.358391     0.614464     6.435715
 H    -1.358391    -0.614464    -6.435715
 H     2.578143     4.422897    -3.137809
 H    -2.578143    -4.422897     3.137809
 H    -0.600735     4.090681     2.459445
 H     0.600735    -4.090681    -2.459445
 H     1.310320    -0.210957     4.867435
 H    -1.310320     0.210957    -4.867435
 H     3.355415     3.662803    -4.533530
 H    -3.355415    -3.662803     4.533530
 H    -2.263415     4.700531     2.479981
 H     2.263415    -4.700531    -2.479981
 H     2.779850     0.632783     5.376783
 H    -2.779850    -0.632783    -5.376783
 H    -0.273023     4.463119    -4.321989
 H     0.273023    -4.463119     4.321989
 H     0.617201     6.263871     0.697570
 H    -0.617201    -6.263871    -0.697570
 H    -0.651521     1.972576     5.902058
 H     0.651521    -1.972576    -5.902058
 H    -0.820121     2.918806    -3.652651
 H     0.820121    -2.918806     3.652651
 H     0.305111     5.549225    -0.892986
 H    -0.305111    -5.549225     0.892986
 H    -0.758020     2.920802     4.410921
 H     0.758020    -2.920802    -4.410921
 H     0.120840     4.031774    -2.655792
 H    -0.120840    -4.031774     2.655792
 H     0.899962     4.535834     0.432339
 H    -0.899962    -4.535834    -0.432339
 H    -0.832790     1.155934     4.348396
 H     0.832790    -1.155934    -4.348396
 H     6.003421    -1.006889    -4.952235
 H    -6.003421     1.006889     4.952235
 H    -5.877058     3.927237    -3.414871
 H     5.877058    -3.927237     3.414871
 H     5.686757     5.098269     1.707591
 H    -5.686757    -5.098269    -1.707591
 H     4.421092    -0.483046    -5.539087
 H    -4.421092     0.483046     5.539087
 H    -4.301689     4.693314    -3.186255
 H     4.301689    -4.693314     3.186255
 H     4.070257     5.252950     2.405063
 H    -4.070257    -5.252950    -2.405063
 H     5.469638     0.649902    -4.662323
 H    -5.469638    -0.649902     4.662323
 H    -5.382455     4.442527    -1.800772
 H     5.382455    -4.442527     1.800772
 H     5.185372     4.006590     2.999620
 H    -5.185372    -4.006590    -2.999620
 H     6.482181    -1.284650    -2.542401
 H    -6.482181     1.284650     2.542401
 H    -6.374654     1.666665    -2.569282
 H     6.374654    -1.666665     2.569282
 H     6.338590     3.135262     0.341938
 H    -6.338590    -3.135262    -0.341938
 H     5.886196     0.345437    -2.181124
 H    -5.886196    -0.345437     2.181124
 H    -5.830546     2.100683    -0.939444
 H     5.830546    -2.100683     0.939444
 H     5.741654     1.996041     1.562541
 H    -5.741654    -1.996041    -1.562541
 H     5.221127    -1.050659    -1.322016
 H    -5.221127     1.050659     1.322016
 H    -5.140525     0.691832    -1.757127
 H     5.140525    -0.691832     1.757127
 H     5.155470     1.894915    -0.103669
 H    -5.155470    -1.894915     0.103669
 H     5.046295    -2.922925    -3.801013
 H    -5.046295     2.922925     3.801013
 H    -4.879591     2.017086    -4.555504
 H     4.879591    -2.017086     4.555504
 H     4.854430     4.924141    -0.569131
 H    -4.854430    -4.924141     0.569131
 H     3.762466    -2.751909    -2.597329
 H    -3.762466     2.751909     2.597329
 H    -3.609242     1.041391    -3.807245
 H     3.609242    -1.041391     3.807245
 H     3.612885     3.754188    -1.028198
 H    -3.612885    -3.754188     1.028198
 H     3.404253    -2.485041    -4.308366
 H    -3.404253     2.485041     4.308366
 H    -3.248964     2.682636    -4.358345
 H     3.248964    -2.682636     4.358345
 H     3.192234     5.124218     0.009390
 H    -3.192234    -5.124218    -0.009390
