   66
scf done: -1139.451300
 N     1.338660    -0.269020     0.809292
 C     2.616450    -0.730980     0.341202
 C     0.813180     0.976916     0.469659
 C     2.695886    -1.571482    -0.776702
 C     3.954020    -2.010785    -1.196047
 H     4.010670    -2.655332    -2.069858
 C     3.779087    -0.416312     1.072612
 C     5.005020    -0.894814     0.626198
 H     5.898647    -0.648748     1.193941
 C     5.120141    -1.676210    -0.522960
 C     1.489104    -2.065811    -1.519654
 H     0.567963    -1.819207    -0.993474
 H     1.543730    -3.152043    -1.642284
 H     1.437140    -1.632226    -2.524555
 B     0.681903     1.383156    -1.183285
 H     1.132957     0.632358    -1.979950
 B     0.801993     2.317794     1.488380
 H     1.326754     2.177396     2.543906
 C     6.463524    -2.140133    -1.007016
 H     7.103451    -2.449784    -0.175664
 H     6.987389    -1.336731    -1.537050
 H     6.371223    -2.982966    -1.696563
 C     3.727891     0.399702     2.332306
 H     3.449140     1.437333     2.132687
 H     4.704283     0.403871     2.821628
 H     3.003808     0.007121     3.054962
 B     1.694004     2.308062    -0.036202
 H     2.870650     2.168661    -0.097210
 B     0.724836     3.157050    -1.240380
 H     1.250666     3.723983    -2.143715
 B     0.760210     3.740579     0.443380
 H     1.319958     4.738793     0.767220
 H     1.169185    -0.482540     1.783233
 N    -1.338674    -0.268999    -0.809325
 C    -2.616454    -0.730978    -0.341229
 C    -0.813197     0.976929    -0.469667
 C    -2.695854    -1.571529     0.776641
 C    -3.953973    -2.010860     1.195999
 H    -4.010596    -2.655448     2.069782
 C    -3.779110    -0.416282    -1.072592
 C    -5.005030    -0.894812    -0.626167
 H    -5.898673    -0.648722    -1.193873
 C    -5.120116    -1.676261     0.522958
 C    -1.489046    -2.065880     1.519537
 H    -0.567919    -1.819209     0.993364
 H    -1.543638    -3.152124     1.642081
 H    -1.437081    -1.632374     2.524472
 B    -0.681921     1.383124     1.183289
 H    -1.132974     0.632303     1.979932
 B    -0.802011     2.317834    -1.488352
 H    -1.326772     2.177464    -2.543882
 C    -6.463482    -2.140204     1.007040
 H    -7.103505    -2.449638     0.175682
 H    -6.987247    -1.336883     1.537295
 H    -6.371169    -2.983189     1.696400
 C    -3.727957     0.399805    -2.332241
 H    -3.449253     1.437437    -2.132564
 H    -4.704352     0.403957    -2.821558
 H    -3.003859     0.007300    -3.054922
 B    -1.694022     2.308058     0.036229
 H    -2.870668     2.168657     0.097232
 B    -0.724855     3.157015     1.240431
 H    -1.250686     3.723923     2.143781
 B    -0.760229     3.740590    -0.443314
 H    -1.319980     4.738813    -0.767125
 H    -1.169196    -0.482506    -1.783268
