   62
scf done: -1980.083952
 I     3.523864     1.548068    -0.234486
 I    -3.524297     1.546866     0.235080
 C     0.827384    -1.033860    -0.175726
 C    -0.827086    -1.034160     0.175446
 C    -0.694538     0.477517     0.101618
 C    -1.422859     1.630232     0.129432
 C    -0.720327     2.874322     0.051188
 C    -1.386236     4.121876     0.092590
 C    -0.701834     5.309026     0.046200
 C     0.700180     5.309259    -0.045052
 C     1.384966     4.122341    -0.091591
 C     0.719474     2.874560    -0.050301
 C     1.422402     1.630709    -0.128798
 C     0.694455     0.477749    -0.101261
 C     1.111789    -1.582208    -1.560190
 C     1.654298    -0.796991    -2.575879
 C     1.906080    -1.328964    -3.837937
 C     1.614861    -2.658609    -4.109344
 C     1.061741    -3.452402    -3.108982
 C     0.810856    -2.917451    -1.853551
 C     1.767675    -1.585814     0.892287
 C     1.816287    -0.971148     2.150458
 C     2.668763    -1.427822     3.144701
 C     3.508689    -2.510670     2.904813
 C     3.486416    -3.119919     1.657932
 C     2.629067    -2.660406     0.662059
 C    -1.767331    -1.585751    -0.892802
 C    -1.815851    -0.970627    -2.150758
 C    -2.668432    -1.426788    -3.145140
 C    -3.508557    -2.509572    -2.905643
 C    -3.486357    -3.119277    -1.659004
 C    -2.628901    -2.660281    -0.662962
 C    -1.111220    -1.583220     1.559698
 C    -0.810079    -2.918572     1.852349
 C    -1.060556    -3.454126     3.107598
 C    -1.613480    -2.660857     4.108489
 C    -1.904936    -1.331129     3.837782
 C    -1.653533    -0.798537     2.575903
 H    -2.467226     4.126188     0.168887
 H    -1.245740     6.246821     0.082055
 H     1.243781     6.247232    -0.080825
 H     2.465949     4.127025    -0.167945
 H     1.878967     0.246668    -2.390928
 H     2.329763    -0.693805    -4.609182
 H     1.808464    -3.073355    -5.093156
 H     0.813438    -4.489592    -3.309252
 H     0.356244    -3.543939    -1.093179
 H     1.173596    -0.123347     2.359323
 H     2.677370    -0.931912     4.109796
 H     4.178960    -2.868088     3.679789
 H     4.146454    -3.955284     1.446588
 H     2.651786    -3.139271    -0.308728
 H    -1.172997    -0.122874    -2.359322
 H    -2.676968    -0.930545    -4.110065
 H    -4.178949    -2.866542    -3.680722
 H    -4.146509    -3.954625    -1.447958
 H    -2.651702    -3.139508     0.307642
 H    -0.355667    -3.544672     1.091538
 H    -0.812077    -4.491381     3.307315
 H    -1.806749    -3.076094     5.092159
 H    -2.328495    -0.696375     4.609429
 H    -1.878353     0.245191     2.391510
