   74
scf done: -1243.346606
 C    -0.619263    -0.029139    -0.121032
 C    -0.963354    -1.532742    -0.411356
 C     1.032679     0.185006     0.176195
 C    -2.386423    -1.729485    -0.966642
 C     1.203401     1.314991     1.219588
 C    -1.693679     0.380247     0.997752
 C     1.825296     0.589156    -1.119617
 C    -1.745815     1.881686     1.346117
 C    -2.438670     0.577991    -1.862270
 C     2.750219    -1.721937    -1.547574
 C    -1.017534     0.868249    -1.345599
 C    -3.146163     0.122868     0.439639
 C    -1.568291    -0.506123     2.245420
 C     3.263513     1.056693    -0.782516
 C     3.345346    -0.570909     1.064665
 C    -0.961514     2.371595    -1.023972
 C    -3.398707    -1.342387     0.113323
 C     1.895491    -1.026140     0.720862
 C    -3.450871     0.978933    -0.788200
 C     4.066288    -0.115544    -0.211403
 C     2.637397     1.737818     1.512920
 C     1.942991    -0.560899    -2.131982
 C     4.162181    -1.243101    -1.229917
 C     2.094973    -2.204269    -0.252441
 C    -1.838782    -1.979044     1.913831
 C     3.386262     0.549342     2.091289
 C    -1.955727     2.733919     0.084746
 C     3.277068     2.209865     0.212659
 C    -2.600861    -0.891729    -2.217726
 C    -3.357057     2.460808    -0.452805
 C    -0.870449    -2.440239     0.829536
 C    -3.254342    -2.169037     1.382808
 H    -0.348604     0.659901    -2.183877
 H     2.787536    -2.546039    -2.270222
 H     2.612581     2.560549     2.238546
 H     2.914846     0.229600     3.029769
 H    -1.875281    -1.176661    -2.991440
 H     0.130918    -2.496567     1.242885
 H    -4.465849     0.741692    -1.137261
 H    -2.594843     1.193328    -2.759529
 H     0.957950    -0.910718    -2.454694
 H    -1.235382     2.925061    -1.932697
 H     4.665740    -0.888666    -2.138907
 H     4.762105    -2.070059    -0.828650
 H    -3.826967     0.416312     1.253401
 H    -2.611431     2.029557     2.007526
 H    -4.115334     2.725781     0.295150
 H     4.308759     2.544123     0.382477
 H     0.046964     2.702690    -0.773572
 H     1.345294     1.439245    -1.608179
 H     2.723322     3.069884    -0.186834
 H    -3.600439    -1.074135    -2.633564
 H    -0.288874    -1.900899    -1.186585
 H     2.445224    -0.185296    -3.033739
 H     1.467175    -1.379224     1.664777
 H     3.725132     1.381980    -1.725750
 H    -3.438356    -3.232136     1.180965
 H    -3.999751    -1.845668     2.121164
 H    -0.575077    -0.409492     2.697886
 H    -2.499046    -2.794743    -1.213240
 H     4.427291     0.808198     2.324480
 H     0.739733     1.004105     2.160303
 H    -1.693896    -2.584570     2.816904
 H    -3.553960     3.069666    -1.344869
 H     0.678175     2.205711     0.888746
 H     2.755627    -2.934953     0.233810
 H     1.178103    -2.742564    -0.476792
 H    -0.890003     2.220788     1.923334
 H    -1.852512     3.795834     0.339005
 H    -4.417420    -1.447391    -0.286179
 H     3.859602    -1.452862     1.471021
 H    -1.129589    -3.462999     0.522669
 H    -2.287793    -0.159469     3.000706
 H     5.074727     0.232445     0.053246
