   23
scf done:  -739.342878
 C     7.873587     5.690587     9.884396
 C     8.064222     6.969072    10.369381
 C     7.046846     7.906232    10.228573
 C     5.859504     7.534691     9.602170
 C     5.721427     6.245410     9.136313
 N     6.719460     5.351808     9.282533
 C     6.529132     3.990578     8.771229
 C     7.555728     2.853236     8.852025
 C     5.431548     3.006026     9.214719
 C     6.249408     3.608573     7.306120
 C     6.295118     2.306835     8.139381
 I     6.033978     0.352511     7.410733
 H     8.619977     4.910954     9.958768
 H     9.002060     7.217845    10.850104
 H     7.175812     8.915713    10.602290
 H     5.043803     8.235103     9.473246
 H     4.829061     5.886189     8.640332
 H     7.761390     2.436019     9.840068
 H     8.450214     2.943580     8.232067
 H     4.404897     3.239215     8.925161
 H     5.505540     2.611767    10.229525
 H     7.063055     3.759303     6.594766
 H     5.274032     3.879654     6.896999
