   28
scf done:  -442.287931
 B     0.375294     6.656518     5.269191
 H     0.854038     6.082834     6.193737
 B    -1.976555     7.594693     3.924624
 H    -3.153989     7.633989     3.765957
 B    -1.199012     6.172864     4.622014
 H    -1.835806     5.224100     4.949951
 B    -0.940626     8.126801     2.580706
 H    -1.363972     8.474486     1.526031
 B     0.286505     5.889503     3.683831
 H     0.638069     4.809545     3.334344
 B     0.556647     8.409584     4.994000
 H     1.171990     9.111169     5.730452
 B     1.394583     7.251563     3.948664
 H     2.557398     7.060231     3.818419
 B     0.615959     8.672727     3.241695
 H     1.237444     9.471653     2.623814
 B    -1.029765     7.748931     5.411370
 H    -1.566493     7.967115     6.449561
 B    -0.892606     8.977757     4.122675
 H    -1.324657    10.080964     4.219634
 C     0.456891     7.146170     2.549976
 C    -1.135481     6.489035     2.970291
 N     0.991772     6.823831     1.305815
 N    -1.690417     5.683851     1.964362
 H    -1.847998     4.737233     2.286405
 H    -2.553491     6.072414     1.605324
 H     0.463153     7.214323     0.537743
 H     1.114227     5.828617     1.176711
