   72
scf done: -1217.986338
 N     1.554180     0.494011     0.235873
 N    -1.536401     0.495457     0.175243
 C     4.210711    -3.050752     0.387134
 H     4.011230    -4.073056     0.698613
 C     3.151969    -2.263790    -0.059741
 C    -3.415134    -0.899406    -0.527082
 C     3.397425    -0.940566    -0.459601
 C     0.950311     1.732699     0.195706
 C     2.252387    -0.073472    -0.919510
 H     2.619453     0.729013    -1.564783
 H     1.545165    -0.661354    -1.513522
 C     5.512326    -2.561113     0.448983
 B    -1.422100     3.092217    -0.669888
 C    -0.933138     1.734424     0.179270
 B     0.032686     2.168144    -1.163871
 C    -5.671950    -1.173564     0.285836
 H    -6.622785    -0.731919     0.573440
 C     4.700473    -0.420909    -0.386238
 C    -3.238044    -2.290066    -0.465073
 C     5.732943    -1.241601     0.063568
 H     6.739319    -0.834392     0.119004
 C    -2.289070    -0.003488    -0.978650
 H    -1.612592    -0.543734    -1.646524
 H    -2.690079     0.839662    -1.548617
 B     1.472374     3.092939    -0.638632
 B    -0.011705     2.102832     1.561194
 C    -4.646801    -0.336787    -0.147784
 B     0.033027     3.945737    -1.187729
 C    -4.289762    -3.092986    -0.026791
 H    -4.145571    -4.169618     0.016017
 C    -5.514324    -2.555515     0.356862
 B    -1.445623     3.052448     1.093700
 B     1.446482     3.037255     1.124625
 C     6.647451    -3.434436     0.900898
 H     7.105622    -3.953411     0.051116
 H     6.308445    -4.199187     1.604827
 H     7.433321    -2.849841     1.386680
 C     1.764264    -2.841066    -0.102155
 H     1.725579    -3.802311     0.415463
 H     1.430215    -3.010037    -1.132730
 H     1.038051    -2.171312     0.367649
 B    -0.863645     4.495739     0.255875
 C    -1.942973    -2.935955    -0.874205
 H    -1.936182    -3.994599    -0.604461
 H    -1.084406    -2.461596    -0.392345
 H    -1.784172    -2.873352    -1.957053
 B     0.895833     4.491544     0.278564
 C    -4.888824     1.145759    -0.219941
 H    -5.863400     1.399423     0.202966
 H    -4.876859     1.506018    -1.254910
 H    -4.130740     1.717564     0.323546
 B    -0.003562     3.870889     1.689779
 C    -6.625183    -3.433773     0.857050
 H    -6.629537    -3.476988     1.952252
 H    -6.521652    -4.458078     0.489832
 H    -7.603346    -3.058153     0.544061
 C     5.008882     0.999124    -0.775643
 H     6.053908     1.237597    -0.565689
 H     4.388392     1.718540    -0.231981
 H     4.841534     1.174755    -1.844156
 H     0.037200     1.439837    -2.100033
 H    -2.450934     2.891987     1.707912
 H    -0.020691     1.303735     2.440464
 H     1.541139     5.490084     0.312222
 H    -2.406161     2.998880    -1.328079
 H     2.435505     2.867307     1.762704
 H    -1.505098     5.497260     0.267631
 H     0.042437     4.546225    -2.214091
 H     2.473949     2.986157    -1.268351
 H    -0.011608     4.410224     2.749665
 H     2.002200     0.297888     1.118873
 H    -1.913766     0.219220     1.069114
