   55
scf done: -1020.418219
 B    -2.255822    -0.032662    -1.450333
 H    -1.486306    -0.102821    -2.347699
 B    -3.046327     1.438726    -0.939154
 H    -2.875964     2.425149    -1.576017
 B    -2.964103     1.526020     0.838874
 H    -2.781360     2.570961     1.370789
 B    -2.155005     0.098327     1.469194
 H    -1.323673     0.119753     2.310129
 B    -3.030564    -1.341701     1.005227
 H    -2.870296    -2.337534     1.631277
 B    -3.080833    -1.424568    -0.776639
 H    -2.962887    -2.473516    -1.319462
 B    -3.990279    -0.006010    -1.375505
 H    -4.621915    -0.058486    -2.381242
 B    -3.885034     0.145847     1.504174
 H    -4.449396     0.222903     2.547637
 B    -4.478027    -0.816075     0.130249
 H    -5.485431    -1.443518     0.198806
 B    -4.448013     0.969661     0.032048
 H    -5.431648     1.637201     0.041188
 N    -0.339366     1.185099    -0.167249
 N    -0.377880    -1.178794     0.065892
 C    -1.705842     0.822714    -0.059187
 C    -1.740183    -0.777190     0.046309
 C     0.425148    -0.035045    -0.409468
 H     1.377800     0.009179     0.122123
 H     0.637774    -0.148583    -1.483250
 C    -0.059810    -2.436037    -0.587486
 H    -0.178571    -2.362237    -1.681695
 H    -0.782654    -3.179053    -0.235788
 C     1.339946    -2.888734    -0.255038
 C     1.792239    -2.875219     1.065753
 H     1.134006    -2.503195     1.844827
 C     3.069557    -3.323320     1.376384
 H     3.410533    -3.307975     2.406593
 C     3.910152    -3.794006     0.371166
 H     4.907801    -4.144276     0.614809
 C     3.467108    -3.809327    -0.945784
 H     4.117789    -4.169563    -1.735915
 C     2.189265    -3.354233    -1.256054
 H     1.848513    -3.361368    -2.287703
 C     0.204905     2.101528     0.826049
 H     0.357789     1.612276     1.799376
 H    -0.541008     2.886817     0.978025
 C     1.498086     2.719155     0.356269
 C     2.575176     2.844092     1.231219
 H     2.489581     2.461548     2.244651
 C     3.756334     3.453300     0.819051
 H     4.586985     3.543035     1.511496
 C     3.873227     3.936481    -0.478552
 H     4.794952     4.407528    -0.804005
 C     2.803862     3.808585    -1.360964
 H     2.890022     4.182096    -2.376287
 C     1.623903     3.204680    -0.946512
 H     0.789887     3.097171    -1.632772
