   50
scf done:  -979.947974
 B     5.737973     3.491012     3.607833
 B     4.207843     4.381499     3.626888
 B     3.599932     4.381477     5.286256
 B     5.742838     5.255896     3.594573
 B     4.413252     5.813322     4.643208
 C     4.453702     3.052175     4.658008
 C     2.723442     1.662690     4.024321
 H     2.101203     2.535732     3.796635
 N     3.914898     1.776035     4.460562
 C     2.106679     0.357536     3.798296
 C     0.796016     0.299351     3.318762
 H     0.256268     1.221276     3.121538
 C     0.184933    -0.927862     3.094876
 H    -0.833045    -0.967216     2.722431
 C     0.882542    -2.103332     3.349767
 H     0.407461    -3.063302     3.175728
 C     2.191616    -2.051892     3.828681
 H     2.732005    -2.971752     4.026079
 C     2.802964    -0.829552     4.052679
 H     3.819477    -0.763982     4.424556
 H     2.445144     4.211531     5.506917
 H     6.040914     2.701323     2.781123
 H     3.468866     4.211442     2.712509
 H     6.100440     5.833116     2.618700
 H     3.804689     6.810225     4.420310
 B     4.755537     3.491015     6.289351
 B     6.285667     4.381503     6.270294
 B     6.893578     4.381477     4.610926
 B     4.750672     5.255899     6.302607
 B     6.080258     5.813323     5.253970
 C     6.039810     3.052176     5.239177
 C     7.770069     1.662694     5.872869
 H     8.392308     2.535737     6.100553
 N     6.578614     1.776037     5.436626
 C     8.386834     0.357541     6.098896
 C     9.697497     0.299357     6.578431
 H    10.237243     1.221284     6.775653
 C    10.308580    -0.927854     6.802318
 H    11.326559    -0.967207     7.174763
 C     9.610973    -2.103326     6.547428
 H    10.086055    -3.063294     6.721469
 C     8.301899    -2.051887     6.068515
 H     7.761511    -2.971749     5.871118
 C     7.690550    -0.829549     5.844514
 H     6.674037    -0.763980     5.472637
 H     8.048366     4.211531     4.390265
 H     4.452597     2.701329     7.116063
 H     7.024644     4.211448     7.184674
 H     4.393069     5.833121     7.278477
 H     6.688820     6.810227     5.476865
