   70
FINAL HEAT OF FORMATION = -1617.015504
 H     6.174267     5.856559    23.089489
 C     7.933849     4.537819    25.444099
 C     8.127384     5.923455    25.516371
 C     7.185791     6.702058    24.826020
 C     7.341158     8.076909    24.871126
 C     6.694265     4.299887    24.592367
 C     6.195733     5.740451    24.181563
 H     6.646090     8.740739    24.357285
 H     6.925749     3.691408    23.707610
 H     5.921207     3.755277    25.151271
 H     5.171326     5.921364    24.534355
 H    12.608153     8.036980    22.956471
 C    10.114515     5.703180    26.908221
 C     9.930642     4.325011    26.842273
 C     8.845105     3.738533    26.113646
 C     8.427999     8.662327    25.599905
 C     9.344614     7.874451    26.273759
 C     9.181350     6.489218    26.223972
 C    11.167018     6.593233    27.602120
 C    11.123185     6.400257    29.135047
 C    10.210353     5.504416    29.719420
 C    10.078164     5.350448    31.095867
 C    10.849067     6.124537    31.958951
 C    11.751555     7.023745    31.414431
 C    11.929596     7.160375    30.022803
 C    12.962040     8.098213    29.608607
 C    13.731539     8.047240    28.508228
 C    13.724304     7.041211    27.457084
 C    14.962588     6.810443    26.824312
 C    15.124100     5.840110    25.848633
 C    14.015853     5.088115    25.468221
 C    12.776776     5.333318    26.051635
 C    12.581387     6.303074    27.050879
 C    10.579257     8.246912    27.113212
 C    10.034169     9.004422    28.346868
 C     8.890853     8.422528    28.933282
 C     8.261497     8.924842    30.063736
 C    12.560489     8.616836    23.876434
 C    11.699384     8.221446    24.890566
 C    11.578003     8.893844    26.124592
 H    10.618409     3.651036    27.351314
 H     8.760289     2.652051    26.103442
 H     9.550272     4.924720    29.086445
 H     9.350185     4.641218    31.487013
 H    10.744428     6.033176    33.038832
 H    12.362922     7.639289    32.073175
 H    13.192312     8.879851    30.333029
 H    14.524107     8.791700    28.428465
 H    15.817449     7.410031    27.134670
 H    16.097137     5.677128    25.388118
 H    14.101706     4.324568    24.696484
 H    11.930828     4.765949    25.684404
 H     8.468492     7.529397    28.487203
 H     7.390576     8.410686    30.466194
 H    11.092480     7.341701    24.709584
 H    14.037762    10.082563    23.273625
 C     8.755836    10.077013    30.669557
 C     9.867855    10.682890    30.114550
 C    10.526892    10.183200    28.964472
 C    11.662180    10.989007    28.546876
 C    12.427690    10.933823    27.445651
 C    12.383658    10.049766    26.292800
 C    13.252774    10.439733    25.244333
 C    13.354502     9.747124    24.052031
 H     8.520417     9.747371    25.613926
 H     8.282013    10.495541    31.555904
 H    10.262668    11.589969    30.570130
 H    11.903642    11.793392    29.242579
 H    13.200759    11.699940    27.376509
 H    13.859843    11.331297    25.395335
