  212
FINAL HEAT OF FORMATION = -3352.524800
 C     0.853699    -0.004294     0.009497
 C    -0.853768     0.004062    -0.009442
 C     1.486266     0.332595    -1.401676
 C    -1.486320    -0.332717     1.401721
 C    -1.455909     1.406030    -0.427132
 C     1.455793    -1.406248     0.427264
 C     1.450078     1.057289     1.018851
 C    -1.450171    -1.057593    -1.018701
 C     1.053606     1.122983     2.367684
 C    -1.053598    -1.123474    -2.367500
 C    -1.088777    -1.452419     2.163619
 C     1.088607     1.452291    -2.163521
 C     1.073695    -2.607849    -0.195451
 C    -1.073774     2.607629     0.195569
 C     2.514330     1.885777     0.636972
 C    -2.514604    -1.885840    -0.636838
 C    -2.592556     0.384377     1.869724
 C     2.592687    -0.384229    -1.869682
 C     2.531913    -1.479198     1.324431
 C    -2.531930     1.479055    -1.324422
 C     1.643203     2.000446     3.286030
 C    -1.643314    -2.000867    -3.285821
 C    -1.737141    -1.822171     3.344414
 C     1.736975     1.822263    -3.344232
 C     1.700402    -3.831505     0.074650
 C    -1.700275     3.831349    -0.074733
 C     3.159427     2.757362     1.528193
 C    -3.159814    -2.757367    -1.528046
 C    -3.296460     0.031248     3.035871
 C     3.296598    -0.030887    -3.035761
 C     3.210470    -2.675514     1.603585
 C    -3.210240     2.675452    -1.603821
 C     2.696873     2.812635     2.843730
 C    -2.697170    -2.812835    -2.843536
 C    -2.845845    -1.066753     3.761540
 C     2.845837     1.067090    -3.761378
 C     2.771377    -3.843245     0.976670
 C    -2.771067     3.843181    -0.976960
 H     0.269081     0.467748     2.716058
 H    -0.268958    -0.468377    -2.715871
 H    -0.259686    -2.051029     1.819153
 H     0.259383     2.050743    -1.819098
 H     0.274817    -2.591825    -0.922781
 H    -0.274902     2.591585     0.922906
 H     2.877275     1.843023    -0.381468
 H    -2.877606    -1.842956     0.381582
 H    -2.950233     1.233464     1.301979
 H     2.950549    -1.233259    -1.301984
 H     2.880431    -0.572666     1.802844
 H    -2.880438     0.572566    -1.802912
 C     1.194844     2.005142     4.766270
 C    -1.194980    -2.005701    -4.766061
 C    -1.304799    -3.036694     4.194789
 C     1.304317     3.036739    -4.194494
 C     1.221610    -5.116364    -0.639624
 C    -1.221305     5.116256     0.639316
 C     4.383050     3.568969     1.048537
 C    -4.383503    -3.568820    -1.048303
 C    -4.549012     0.836857     3.442122
 C     4.549279    -0.836325    -3.441960
 C     4.428257    -2.657981     2.553532
 C    -4.427699     2.658046    -2.554186
 H     3.173160     3.487001     3.544950
 H    -3.173525    -3.487155    -3.544753
 H    -3.364558    -1.358216     4.669284
 H     3.364543     1.358727    -4.669064
 H     3.276199    -4.778186     1.185974
 H    -3.275634     4.778206    -1.186520
 C     5.136973    -0.368881    -4.785652
 C    -5.136627     0.369426     4.785845
 C    -5.020704     4.061103    -2.776677
 C     5.021746    -4.060919     2.775476
 C     4.869628     4.576927     2.105549
 C    -4.870377    -4.576692    -2.105264
 C     5.632952    -0.657702    -2.355152
 C    -5.632793     0.658334     2.355399
 C    -5.530698     1.763616    -1.945249
 C     5.530782    -1.763094     1.944402
 C     5.537454     2.585076     0.751322
 C    -5.537760    -2.584823    -0.750881
 C     4.197787    -2.333334    -3.571443
 C    -4.197375     2.333832     3.571625
 C    -4.013723     2.092438    -3.928497
 C     4.014641    -2.092814     3.928128
 C     4.044401     4.355581    -0.235402
 C    -4.044719    -4.355489     0.235561
 C     0.987369     2.574128    -5.634396
 C    -0.988058    -2.574097     5.634733
 C    -1.990437     6.368164     0.179376
 C     1.991228    -6.368209    -0.180320
 C     1.662638     3.270756     5.511439
 C    -1.662613    -3.271514    -5.511005
 C     0.054850     3.731286    -3.631846
 C    -0.055355    -3.731558     3.632471
 C     0.276743     5.344804     0.349960
 C    -0.276289    -5.345439    -0.349900
 C    -0.341029     1.938372     4.882068
 C     0.340875    -1.938706    -4.881939
 C     2.453157     4.069546    -4.235055
 C    -2.453876    -4.069233     4.235210
 C    -1.424055     4.963452     2.161516
 C     1.423854    -4.963041    -2.161833
 C     1.808360     0.773624     5.467408
 C    -1.808729    -0.774369    -5.467334
 H     0.678900     3.430637    -6.250350
 H    -0.679867    -3.430653     6.250759
 H    -1.600566     7.250279     0.704578
 H     1.601457    -7.250259    -0.705705
 H     1.265194     3.261948     6.535113
 H    -1.265153    -3.262852    -6.534673
 H     1.855049     2.112120    -6.121520
 H    -1.855746    -2.111929     6.121693
 H    -3.062820     6.301489     0.404715
 H     3.063527    -6.301158    -0.405944
 H     2.755260     3.331027     5.591732
 H    -2.755225    -3.331932    -5.591312
 H     0.170929     1.840514    -5.641211
 H    -0.171485    -1.840633     5.641690
 H    -1.875955     6.549015    -0.897499
 H     1.877101    -6.549456     0.896525
 H     1.303898     4.185669     5.021366
 H    -1.303782    -4.186292    -5.020747
 H     2.163954     4.939716    -4.841448
 H    -2.165016    -4.939411     4.841759
 H    -1.077454     5.864997     2.686958
 H     1.077328    -5.864514    -2.687448
 H     1.505536     0.738212     6.524077
 H    -1.505995    -0.739069    -6.524032
 H     2.696542     4.425600    -3.225497
 H    -2.697121    -4.425332     3.225636
 H    -0.864079     4.109261     2.558220
 H     0.863530    -4.108875    -2.558105
 H     1.482285    -0.158773     4.990955
 H    -1.482750     0.158145    -4.991040
 H     3.368576     3.650334    -4.671441
 H    -3.369286    -3.649733     4.671345
 H    -2.484092     4.815360     2.405576
 H     2.483777    -4.814588    -2.406174
 H     2.905468     0.804034     5.429849
 H    -2.905831    -0.804921    -5.429679
 H    -0.221602     4.575058    -4.278566
 H     0.220865    -4.575247     4.279400
 H     0.631924     6.246750     0.868961
 H    -0.631352    -6.247344    -0.869054
 H    -0.636780     1.937374     5.940531
 H     0.636569    -1.937914    -5.940417
 H    -0.805888     3.054072    -3.581276
 H     0.805489    -3.054487     3.581896
 H     0.453437     5.483897    -0.724803
 H    -0.452631    -5.484892     0.724872
 H    -0.810200     2.806337     4.402527
 H     0.810216    -2.806475    -4.402213
 H     0.224444     4.128929    -2.624684
 H    -0.224844    -4.129399     2.625374
 H     0.891438     4.503034     0.686514
 H    -0.891331    -4.503755    -0.686034
 H    -0.762311     1.037129     4.424788
 H     0.762040    -1.037281    -4.424908
 H     6.013630    -0.980891    -5.036121
 H    -6.013219     0.981495     5.036398
 H    -5.874713     3.993747    -3.463750
 H     5.875990    -3.993480     3.462248
 H     5.721015     5.144994     1.707630
 H    -5.721856    -5.144568    -1.707268
 H     4.415447    -0.473879    -5.606636
 H    -4.415025     0.474352     5.606771
 H    -4.291323     4.748893    -3.224306
 H     4.292730    -4.749022     3.223217
 H     4.086144     5.298074     2.373501
 H    -4.087083    -5.298026    -2.373264
 H     5.468425     0.677032    -4.750489
 H    -5.468150    -0.676465     4.750681
 H    -5.386330     4.507999    -1.843016
 H     5.387149    -4.507491     1.841573
 H     5.209789     4.082260     3.024440
 H    -5.210497    -4.081959    -3.024134
 H     6.538140    -1.224261    -2.617201
 H    -6.537915     1.224956     2.617536
 H    -6.408733     1.731983    -2.606311
 H     6.409061    -1.731393     2.605137
 H     6.430447     3.129192     0.411132
 H    -6.430744    -3.128870    -0.410562
 H     5.912722     0.399270    -2.250687
 H    -5.912654    -0.398614     2.250939
 H    -5.854804     2.150809    -0.969919
 H     5.854619    -2.149952     0.968850
 H     5.808815     2.015571     1.650445
 H    -5.809214    -2.015284    -1.649954
 H     5.288358    -1.010897    -1.375698
 H    -5.288258     1.011517     1.375921
 H    -5.185438     0.733124    -1.797903
 H     5.185187    -0.732657     1.797452
 H     5.263906     1.865593    -0.030259
 H    -5.264041    -1.865375     0.030669
 H     5.089533    -2.911133    -3.853168
 H    -5.089043     2.911700     3.853455
 H    -4.877868     2.065018    -4.607592
 H     4.879041    -2.065285     4.606895
 H     4.927055     4.910448    -0.583523
 H    -4.927398    -4.910174     0.583910
 H     3.816601    -2.747452    -2.631247
 H    -3.816248     2.747952     2.631410
 H    -3.621060     1.073044    -3.848749
 H     3.621643    -1.073524     3.848760
 H     3.726438     3.696152    -1.050897
 H    -3.726416    -3.696088     1.050951
 H     3.432083    -2.492351    -4.341825
 H    -3.431583     2.492760     4.341938
 H    -3.238232     2.715455    -4.393599
 H     3.239521    -2.716171     4.393392
 H     3.239266     5.079194    -0.055064
 H    -3.239768    -5.079262     0.055039
