   66
FINAL HEAT OF FORMATION = -2158.840830
Cl    14.102729     3.452343     8.372839
Cl    20.115466     5.527330     8.678686
 C    18.177304     3.575676     8.459897
 C    18.800967     2.194493     8.195640
 C    17.219344     1.622290     8.457285
 C    16.840625     3.112665     8.413484
 C    15.784331     3.985946     8.439359
 C    16.033181     5.393398     8.558379
 C    14.985809     6.352281     8.595764
 C    15.246188     7.696164     8.731365
 C    16.575352     8.151870     8.838299
 C    17.617683     7.254871     8.804396
 C    17.391822     5.859542     8.663431
 C    18.463676     4.908521     8.603141
 C    19.863506     1.700596     9.177200
 C    20.307391     2.496189    10.241106
 C    21.285271     2.050925    11.132752
 C    21.854880     0.789917    10.982043
 C    21.426597    -0.020473     9.930366
 C    20.447707     0.428442     9.048680
 C    19.386933     2.196436     6.658638
 C    18.626914     3.191431     5.750635
 C    20.862627     2.662333     6.705085
 C    19.375858     0.847434     5.901204
 C    16.645700     0.715788     7.368337
 C    15.753561     1.200428     6.403360
 C    15.220362     0.371609     5.414244
 C    15.563020    -0.976477     5.364172
 C    16.451644    -1.480517     6.314163
 C    16.982743    -0.646973     7.294079
 C    16.832055     1.051252     9.950787
 C    16.853552     2.167538    11.021080
 C    15.385168     0.502742     9.898022
 C    17.712985    -0.087715    10.516680
 H    13.959951     6.006456     8.517403
 H    14.421838     8.406546     8.756773
 H    16.780781     9.215282     8.946934
 H    18.639694     7.611737     8.883525
 H    19.889689     3.486105    10.388959
 H    21.600991     2.701811    11.946872
 H    22.619678     0.440721    11.674031
 H    21.850910    -1.014861     9.798051
 H    20.121753    -0.243124     8.262647
 H    18.774406     4.234331     6.049455
 H    19.009427     3.089350     4.726203
 H    17.551733     2.993326     5.715170
 H    21.525531     1.896366     7.121076
 H    21.197078     2.870682     5.679476
 H    20.998514     3.575288     7.289356
 H    18.386831     0.580690     5.526244
 H    20.035094     0.953495     5.028097
 H    19.759808     0.003715     6.478955
 H    15.460116     2.244528     6.411833
 H    14.530284     0.789815     4.682793
 H    15.146834    -1.626174     4.595807
 H    16.741907    -2.530030     6.289253
 H    17.691890    -1.071237     7.995674
 H    17.819860     2.676620    11.080823
 H    16.077002     2.922419    10.860362
 H    16.665964     1.711808    12.002592
 H    14.685219     1.202626     9.435926
 H    15.321404    -0.444481     9.352196
 H    15.042220     0.318624    10.925439
 H    17.172648    -0.533837    11.363575
 H    17.907800    -0.898393     9.811076
 H    18.671093     0.267898    10.898328
