   66
FINAL HEAT OF FORMATION = -2158.824462
Cl     9.392707     8.779141     3.420220
Cl     4.389818    10.616911    -0.001133
 C     7.057875    10.618537     0.648195
 C     7.678346    11.922026     0.135478
 C     9.147786    11.258848     0.807114
 C     8.182251    10.221293     1.407743
 C     8.087213     9.191024     2.307784
 C     6.869711     8.435113     2.394318
 C     6.730489     7.308747     3.248557
 C     5.555520     6.595676     3.311284
 C     4.450274     6.978385     2.524720
 C     4.541726     8.068656     1.690912
 C     5.738634     8.826012     1.591907
 C     5.849819     9.982277     0.752389
 C     6.947866    13.098366     0.876422
 C     6.193000    12.868573     2.042287
 C     5.486820    13.885767     2.680142
 C     5.502212    15.183193     2.174161
 C     6.226088    15.434752     1.012666
 C     6.923124    14.409621     0.372506
 C     7.656753    12.232073    -1.365734
 C     6.719385    11.649200    -2.228169
 C     6.675005    11.974865    -3.583208
 C     7.569663    12.898877    -4.119004
 C     8.507206    13.493294    -3.276815
 C     8.544926    13.165166    -1.922051
 C     9.966978    12.207165     1.821004
 C    10.277710    13.579459     1.182559
 C    11.324490    11.641176     2.316457
 C     9.178228    12.482852     3.125523
 C    10.063378    10.429760    -0.284060
 C     9.245436     9.729856    -1.403417
 C    11.133361    11.274528    -1.010985
 C    10.789583     9.242908     0.407827
 H     7.578086     7.007974     3.856459
 H     5.482529     5.732595     3.970589
 H     3.522276     6.411713     2.575135
 H     3.688387     8.364094     1.087877
 H     6.154828    11.878646     2.484053
 H     4.919480    13.652892     3.580038
 H     4.948589    15.979902     2.668587
 H     6.241910    16.434561     0.581096
 H     7.432753    14.653334    -0.552046
 H     6.020632    10.912221    -1.852334
 H     5.935492    11.494392    -4.222301
 H     7.537732    13.151922    -5.177607
 H     9.217965    14.217836    -3.672217
 H     9.285572    13.647524    -1.293034
 H     9.370980    14.118419     0.898796
 H    10.931826    13.503272     0.309161
 H    10.799129    14.204200     1.920815
 H    12.049694    11.453284     1.522679
 H    11.771492    12.392843     2.980902
 H    11.204212    10.727658     2.904946
 H     9.840078    13.001086     3.832223
 H     8.845621    11.560413     3.613501
 H     8.312694    13.125052     2.972605
 H     8.354662     9.215905    -1.026645
 H     8.943896    10.404718    -2.203338
 H     9.887250     8.963609    -1.857820
 H    10.701396    12.104193    -1.573474
 H    11.640890    10.628284    -1.740615
 H    11.906605    11.669484    -0.347588
 H    11.490575     8.807323    -0.316794
 H    11.362546     9.502515     1.294680
 H    10.085441     8.450139     0.680672
