   23
FINAL HEAT OF FORMATION =  -739.836805
 C     7.880734     5.701700     9.892335
 C     8.067635     6.984475    10.377956
 C     7.048775     7.924903    10.235960
 C     5.860006     7.551133     9.605800
 C     5.719308     6.259251     9.137490
 N     6.721539     5.357998     9.284618
 C     6.527565     3.981588     8.767435
 C     7.561343     2.838876     8.846842
 C     5.425083     2.992114     9.217012
 C     6.244357     3.599500     7.293938
 C     6.292077     2.288046     8.131929
 I     6.026135     0.307492     7.395556
 H     8.633767     4.923472     9.970736
 H     9.008123     7.234918    10.862246
 H     7.177706     8.938251    10.611520
 H     5.041714     8.254809     9.475168
 H     4.822161     5.903301     8.639214
 H     7.773581     2.422261     9.837701
 H     8.460031     2.931443     8.227028
 H     4.393076     3.226684     8.934407
 H     5.499352     2.598965    10.236390
 H     7.058194     3.754784     6.577865
 H     5.267538     3.874937     6.881754
