   72
FINAL HEAT OF FORMATION = -1219.194276
 N    10.466167     9.157432     2.227586
 N     8.466166     6.673596     1.467721
 C    12.441459    11.965788    -0.680381
 H    12.625359    11.894931    -1.752980
 C    11.384455    11.236645    -0.128251
 C     6.933746     6.041363    -0.352177
 C    11.139211    11.315489     1.259059
 C     9.954147     8.427741     3.279527
 C    10.009423    10.516578     1.877459
 H     9.637032    11.018592     2.776681
 H     9.163611    10.447739     1.182825
 C    13.269466    12.774195     0.101921
 B     7.664211     6.758369     4.063733
 C     8.730350     6.870557     2.798635
 B     8.265908     8.384089     3.529201
 C     6.168055     3.897771    -1.186603
 H     5.740788     2.913523    -0.991239
 C    11.973393    12.115294     2.069250
 C     7.254196     6.422116    -1.670547
 C    13.018526    12.829901     1.474340
 H    13.659057    13.445009     2.106908
 C     7.189062     6.986235     0.805926
 H     7.192766     8.026941     0.460984
 H     6.385130     6.904398     1.545299
 B     9.438055     8.980309     4.770497
 B    10.367843     6.743426     3.281358
 C     6.383706     4.761289    -0.110676
 B     8.052795     8.006288     5.257237
 C     7.020776     5.523745    -2.719161
 H     7.271102     5.827390    -3.735902
 C     6.480576     4.256744    -2.501334
 B     9.067074     5.671962     3.921933
 B    10.838650     7.901178     4.587956
 C    14.382592    13.578165    -0.521049
 H    14.006863    14.540104    -0.899395
 H    14.835114    13.048329    -1.368313
 H    15.174643    13.797791     0.204684
 C    10.528362    10.380154    -1.031184
 H    10.961999    10.318090    -2.035432
 H     9.514186    10.791267    -1.136412
 H    10.426419     9.359376    -0.644252
 B     8.614056     6.320755     5.505802
 C     7.832616     7.781137    -1.991417
 H     8.140200     7.831562    -3.041793
 H     8.710592     8.010357    -1.376780
 H     7.100129     8.584003    -1.826394
 B     9.684673     7.650779     5.917491
 C     6.009538     4.310850     1.281088
 H     5.647640     3.277044     1.269714
 H     5.211615     4.934481     1.707304
 H     6.859055     4.361335     1.972743
 B    10.332051     6.256711     4.997347
 C     6.246042     3.294551    -3.638326
 H     6.907678     2.420501    -3.559441
 H     6.432124     3.767049    -4.609645
 H     5.213428     2.921108    -3.636901
 C    11.767639    12.223761     3.562189
 H    12.560294    12.826813     4.018243
 H    11.772402    11.242285     4.052334
 H    10.809007    12.701591     3.807312
 H     7.580924     9.116054     2.892118
 H     8.984958     4.555376     3.517721
 H    11.149023     6.381230     2.458836
 H    10.001532     7.890797     7.040973
 H     6.547297     6.439316     3.808053
 H    11.965417     8.283401     4.641478
 H     8.145326     5.599724     6.330786
 H     7.180263     8.491828     5.907666
 H     9.525446    10.149982     4.968986
 H    11.123188     5.491388     5.454294
 H    11.441319     8.973971     2.020446
 H     9.091589     6.054460     0.967839
