   54
FINAL HEAT OF FORMATION =  -983.341725
 B     1.116480     0.000008     8.079376
 B     0.718049     1.462798     9.060368
 B    -1.055988     1.458720     9.187237
 B    -1.572013    -0.000010     8.266336
 B     1.328207     0.000006     9.843974
 B    -0.070493     0.878918    10.545483
 B    -1.549270    -0.000011    10.051638
 C    -0.258214     1.000501     7.791596
 N    -0.389109     1.607848     6.554271
 C     0.648230     2.508705     6.035150
 H     1.588746     1.946316     5.976891
 H     0.821732     3.354915     6.716973
 C     0.270081     3.037970     4.670361
 C     0.234101     4.415585     4.430075
 H     0.463347     5.109221     5.238751
 C    -0.091008     4.911150     3.165978
 H    -0.113021     5.986425     2.996217
 C    -0.391898     4.032199     2.127220
 H    -0.647724     4.416586     1.141135
 C    -0.365542     2.655235     2.358528
 H    -0.600036     1.963203     1.550938
 C    -0.036689     2.163099     3.619583
 H    -0.020510     1.090292     3.800687
 H     1.990455     0.000012     7.275448
 H    -2.554189    -0.000017    10.691795
 H     1.366462     2.448603     8.913226
 H    -2.533011    -0.000013     7.563884
 H     2.408477     0.000010    10.346296
 H    -1.712935     2.448230     9.103552
 H     0.003305     1.519195    11.547582
 H    -1.331251     1.938959     6.370371
 B     0.718064    -1.462792     9.060363
 B    -1.055973    -1.458734     9.187234
 B    -0.070483    -0.878926    10.545480
 C    -0.258204    -1.000501     7.791593
 N    -0.389079    -1.607845     6.554262
 C     0.648254    -2.508748     6.035199
 H     1.588802    -1.946407     5.977014
 H     0.821662    -3.354973     6.717026
 C     0.270175    -3.037980     4.670379
 C     0.233861    -4.415598     4.430156
 H     0.462806    -5.109255     5.238899
 C    -0.091195    -4.911139     3.166036
 H    -0.113471    -5.986417     2.996325
 C    -0.391692    -4.032159     2.127189
 H    -0.647470    -4.416526     1.141084
 C    -0.364994    -2.655190     2.358430
 H    -0.599170    -1.963135     1.550768
 C    -0.036201    -2.163080     3.619510
 H    -0.019746    -1.090268     3.800556
 H     1.366488    -2.448588     8.913219
 H    -1.712908    -2.448252     9.103545
 H     0.003323    -1.519204    11.547577
 H    -1.331222    -1.938939     6.370338
