   55
FINAL HEAT OF FORMATION = -1021.413048
 B     0.347302     0.720895    12.628995
 H    -0.824353     0.892732    12.578484
 B     1.225605     0.290147    14.079392
 H     0.613037     0.059960    15.071351
 B     2.695877     1.311381    14.181629
 H     3.063629     1.708031    15.239415
 B     2.801221     2.377486    12.783046
 H     3.074360     3.528220    12.842236
 B     2.840560     1.433937    11.308493
 H     3.276374     1.926444    10.318031
 B     1.347034     0.440382    11.211588
 H     0.820509     0.277714    10.158744
 B     1.345817    -0.697616    12.597818
 H     0.833719    -1.769992    12.516728
 B     3.736484     0.923755    12.773480
 H     4.923775     0.993219    12.839134
 B     2.871484    -0.277193    11.778252
 H     3.459589    -1.075320    11.118311
 B     2.793235    -0.361377    13.571813
 H     3.333917    -1.211578    14.206804
 N     0.430186     3.016611    13.920995
 N     0.626403     3.186256    11.549509
 C     1.248252     1.924420    13.511937
 C     1.340003     2.004974    11.909111
 C    -0.182836     3.609538    12.721995
 H    -0.194951     4.701674    12.805100
 H    -1.224818     3.262790    12.606107
 C    -0.080282     3.198227    10.269573
 H    -0.986788     2.565794    10.300844
 H     0.592419     2.760462     9.522135
 C    -0.454215     4.605545     9.849940
 C     0.512692     5.619594     9.825664
 H     1.529492     5.392917    10.143192
 C     0.178585     6.905811     9.407524
 H     0.940114     7.684295     9.391742
 C    -1.127159     7.197847     9.006118
 H    -1.387176     8.203454     8.679199
 C    -2.095263     6.195818     9.028167
 H    -3.116599     6.414936     8.720536
 C    -1.759390     4.907820     9.450665
 H    -2.522755     4.129993     9.469305
 C     0.942955     3.943188    14.935721
 H     1.684684     4.644314    14.516611
 H     1.462923     3.337757    15.686913
 C    -0.171918     4.719950    15.605963
 C    -0.057902     6.100650    15.795852
 H     0.823444     6.624909    15.426047
 C    -1.060948     6.815295    16.453965
 H    -0.956624     7.890285    16.593059
 C    -2.194423     6.155012    16.924321
 H    -2.979664     6.710528    17.434742
 C    -2.319406     4.776915    16.733866
 H    -3.203078     4.254793    17.098137
 C    -1.316204     4.064721    16.080058
 H    -1.417028     2.991478    15.926045
