   70
FINAL HEAT OF FORMATION = -1617.374122
 H     6.169431     5.837975    23.082548
 C     7.933966     4.527351    25.446084
 C     8.124979     5.916190    25.516133
 C     7.179750     6.692232    24.822314
 C     7.333182     8.070367    24.864753
 C     6.693926     4.285318    24.593609
 C     6.191783     5.725295    24.178991
 H     6.635116     8.734344    24.347814
 H     6.926053     3.673180    23.706587
 H     5.917947     3.738429    25.154117
 H     5.162324     5.903611    24.530891
 H    12.578228     8.076167    22.926252
 C    10.118069     5.704258    26.911124
 C     9.935500     4.322452    26.847093
 C     8.849512     3.730487    26.118672
 C     8.420256     8.660552    25.593543
 C     9.341945     7.875441    26.271720
 C     9.180108     6.487150    26.223908
 C    11.170841     6.598380    27.604149
 C    11.127216     6.401223    29.139628
 C    10.206124     5.507370    29.721472
 C    10.075632     5.340994    31.099896
 C    10.858245     6.100410    31.970131
 C    11.769440     6.997000    31.428333
 C    11.945372     7.144871    30.034921
 C    12.990724     8.076453    29.632122
 C    13.762720     8.024939    28.529064
 C    13.741035     7.025043    27.469494
 C    14.981646     6.782639    26.839760
 C    15.138118     5.814971    25.856500
 C    14.019678     5.078450    25.465191
 C    12.778342     5.336490    26.045945
 C    12.587688     6.303863    27.052766
 C    10.577988     8.253128    27.111791
 C    10.029115     9.016051    28.343666
 C     8.876171     8.442888    28.926426
 C     8.236544     8.957047    30.050039
 C    12.538398     8.650357    23.854261
 C    11.687339     8.242703    24.876753
 C    11.573518     8.905705    26.119686
 H    10.627696     3.650135    27.359336
 H     8.767792     2.640274    26.111046
 H     9.539539     4.935384    29.082791
 H     9.339925     4.632182    31.487035
 H    10.756442     5.999624    33.052920
 H    12.393100     7.602395    32.090863
 H    13.232261     8.847244    30.369898
 H    14.571641     8.757838    28.456386
 H    15.843821     7.371978    27.161854
 H    16.114782     5.642151    25.399102
 H    14.099358     4.315669    24.687136
 H    11.925180     4.777693    25.672826
 H     8.455593     7.542741    28.484956
 H     7.356292     8.448071    30.448247
 H    11.084567     7.356093    24.696088
 H    14.008303    10.130186    23.246417
 C     8.731851    10.112859    30.654640
 C     9.856845    10.707440    30.105807
 C    10.524123    10.196447    28.962743
 C    11.670574    10.995217    28.554359
 C    12.438140    10.939821    27.450271
 C    12.381552    10.063159    26.289486
 C    13.241159    10.464942    25.234676
 C    13.332221     9.784050    24.031171
 H     8.509672     9.749352    25.604492
 H     8.250422    10.541791    31.536106
 H    10.257319    11.616872    30.560274
 H    11.916296    11.796010    29.258523
 H    13.220548    11.701888    27.382484
 H    13.849475    11.359037    25.391299
