   66
FINAL HEAT OF FORMATION = -1539.959577
 C     8.123853    12.099740    17.199200
 C     7.961499    11.481979    18.427522
 C     7.463678    11.776553    20.899181
 H     8.356757    11.494124    16.319824
 H     8.064626    10.397802    18.519617
 H     7.545209    10.704981    21.097920
 C     7.702761    14.303125    18.136498
 C     7.997485    13.506539    17.040502
 C     7.658873    12.261517    19.575961
 C     7.172363    12.658947    21.925629
 C     7.058008    14.058720    21.705270
 C     7.242645    14.555557    20.431346
 C     7.539073    13.666589    19.383147
 C     7.517441    15.831939    18.232213
 C     6.332551    16.285929    17.333418
 C     5.574474    15.344118    16.609487
 C     4.459793    15.689373    15.845594
 C     4.031445    17.015994    15.798586
 C     4.748689    17.966741    16.511914
 C     5.904882    17.640310    17.254563
 C     6.574936    18.767187    17.890260
 C     7.890528    18.909999    18.141467
 C     8.963849    17.972185    17.839311
 C     8.827010    16.556638    17.810567
 C     7.167497    16.017974    19.953495
 C     5.687604    16.440019    20.176315
 C     4.734045    15.470961    19.791046
 C     3.358060    15.654542    19.884938
 C     2.857782    16.852699    20.395641
 C     3.763704    17.823699    20.791006
 C     5.169861    17.655126    20.701504
 C     5.922991    18.799807    21.193681
 C     7.236308    18.950201    21.444328
 C     8.346915    18.018631    21.308543
 C     8.333906    16.742369    20.682818
 H     8.136060    13.942308    16.049231
 H     7.024660    12.273295    22.937508
 H     6.826537    14.723547    22.539842
 H     5.834671    14.291201    16.661017
 H     3.914901    14.908351    15.310095
 H     3.149272    17.303669    15.222301
 H     4.430737    19.012251    16.492462
 H     5.935299    19.631687    18.091408
 H     8.219007    19.879638    18.527277
 H     5.079785    14.521244    19.389961
 H     2.685469    14.860271    19.554227
 H     1.783041    17.026031    20.483916
 H     3.393154    18.767113    21.199421
 H     5.295713    19.664391    21.431644
 H     7.529174    19.920106    21.858003
 H     9.587146    15.034477    20.256453
 C    10.216698    18.559843    17.556518
 C    11.324576    17.807008    17.191814
 C    11.192990    16.419639    17.131993
 C     9.974002    15.821370    17.450297
 C     9.550816    18.485599    21.896857
 C    10.726280    17.751919    21.900513
 C    10.719721    16.494945    21.295068
 C     9.547953    16.020070    20.714192
 H    10.296097    19.648468    17.612645
 H    12.275993    18.293518    16.965513
 H    12.044419    15.790025    16.863066
 H     9.936687    14.736207    17.444659
 H     9.532387    19.469538    22.371871
 H    11.629657    18.151509    22.366500
 H    11.621736    15.879963    21.267076
