  212
scf done: -3353.175088
 C     0.854853    -0.006047     0.014141
 C    -0.854853     0.006047    -0.014141
 C     1.498559     0.324069    -1.396570
 C    -1.498559    -0.324069     1.396570
 C    -1.456472     1.409397    -0.437389
 C     1.456472    -1.409397     0.437389
 C     1.451155     1.058239     1.024378
 C    -1.451155    -1.058239    -1.024378
 C     1.056824     1.121942     2.377295
 C    -1.056824    -1.121942    -2.377295
 C    -1.106090    -1.440344     2.171627
 C     1.106090     1.440344    -2.171627
 C     1.078626    -2.614961    -0.187762
 C    -1.078626     2.614961     0.187762
 C     2.516483     1.891365     0.642214
 C    -2.516483    -1.891365    -0.642214
 C    -2.611439     0.396752     1.854001
 C     2.611439    -0.396752    -1.854001
 C     2.538078    -1.480101     1.333568
 C    -2.538078     1.480101    -1.333568
 C     1.650158     1.999117     3.298945
 C    -1.650158    -1.999117    -3.298945
 C    -1.764741    -1.802860     3.353371
 C     1.764741     1.802860    -3.353371
 C     1.722800    -3.836512     0.068726
 C    -1.722800     3.836512    -0.068726
 C     3.165163     2.761964     1.536988
 C    -3.165163    -2.761964    -1.536988
 C    -3.324161     0.051623     3.020346
 C     3.324161    -0.051623    -3.020346
 C     3.228420    -2.675176     1.604752
 C    -3.228420     2.675176    -1.604752
 C     2.703869     2.815653     2.856109
 C    -2.703869    -2.815653    -2.856109
 C    -2.878418    -1.043515     3.759198
 C     2.878418     1.043515    -3.759198
 C     2.800588    -3.844721     0.967252
 C    -2.800588     3.844721    -0.967252
 H     0.273392     0.461625     2.728459
 H    -0.273392    -0.461625    -2.728459
 H    -0.272366    -2.043990     1.837104
 H     0.272366     2.043990    -1.837104
 H     0.272623    -2.603262    -0.911934
 H    -0.272623     2.603262     0.911934
 H     2.880676     1.851583    -0.379180
 H    -2.880676    -1.851583     0.379180
 H    -2.968517     1.244083     1.278006
 H     2.968517    -1.244083    -1.278006
 H     2.884760    -0.571893     1.816840
 H    -2.884760     0.571893    -1.816840
 C     1.204394     2.003538     4.780112
 C    -1.204394    -2.003538    -4.780112
 C    -1.336562    -3.011181     4.214997
 C     1.336562     3.011181    -4.214997
 C     1.244308    -5.127290    -0.635131
 C    -1.244308     5.127290     0.635131
 C     4.388435     3.575475     1.058803
 C    -4.388435    -3.575475    -1.058803
 C    -4.578113     0.861261     3.414723
 C     4.578113    -0.861261    -3.414723
 C     4.444256    -2.656168     2.557226
 C    -4.444256     2.656168    -2.557226
 H     3.183509     3.489593     3.560085
 H    -3.183509    -3.489593    -3.560085
 H    -3.405250    -1.329329     4.667868
 H     3.405250     1.329329    -4.667868
 H     3.319168    -4.777991     1.165846
 H    -3.319168     4.777991    -1.165846
 C     5.172453    -0.403359    -4.759591
 C    -5.172453     0.403359     4.759591
 C    -5.056350     4.055120    -2.757216
 C     5.056350    -4.055120     2.757216
 C     4.899992     4.552355     2.133995
 C    -4.899992    -4.552355    -2.133995
 C     5.659236    -0.677981    -2.323798
 C    -5.659236     0.677981     2.323798
 C    -5.538860     1.735083    -1.969313
 C     5.538860    -1.735083     1.969313
 C     5.533635     2.592859     0.716526
 C    -5.533635    -2.592859    -0.716526
 C     4.228587    -2.361407    -3.535028
 C    -4.228587     2.361407     3.535028
 C    -4.019663     2.119110    -3.941679
 C     4.019663    -2.119110     3.941679
 C     4.037039     4.398250    -0.200487
 C    -4.037039    -4.398250     0.200487
 C     1.036027     2.540909    -5.657514
 C    -1.036027    -2.540909     5.657514
 C    -2.152755     6.333998     0.332686
 C     2.152755    -6.333998    -0.332686
 C     1.682418     3.265244     5.527054
 C    -1.682418    -3.265244    -5.527054
 C     0.078587     3.705425    -3.668909
 C    -0.078587    -3.705425     3.668909
 C     0.184436     5.469257     0.156773
 C    -0.184436    -5.469257    -0.156773
 C    -0.333034     1.944363     4.900204
 C     0.333034    -1.944363    -4.900204
 C     2.482941     4.049102    -4.251922
 C    -2.482941    -4.049102     4.251922
 C    -1.224480     4.922232     2.165955
 C     1.224480    -4.922232    -2.165955
 C     1.810269     0.766243     5.481963
 C    -1.810269    -0.766243    -5.481963
 H     0.731864     3.397392    -6.282229
 H    -0.731864    -3.397392     6.282229
 H    -1.777815     7.220560     0.868454
 H     1.777815    -7.220560    -0.868454
 H     1.286119     3.257688     6.554953
 H    -1.286119    -3.257688    -6.554953
 H     1.913223     2.077435    -6.134587
 H    -1.913223    -2.077435     6.134587
 H    -3.189990     6.161728     0.661573
 H     3.189990    -6.161728    -0.661573
 H     2.779339     3.317797     5.605210
 H    -2.779339    -3.317797    -5.605210
 H     0.217866     1.803539    -5.670968
 H    -0.217866    -1.803539     5.670968
 H    -2.169738     6.582705    -0.740047
 H     2.169738    -6.582705     0.740047
 H     1.329045     4.186862     5.037561
 H    -1.329045    -4.186862    -5.037561
 H     2.199024     4.911879    -4.877811
 H    -2.199024    -4.911879     4.877811
 H    -0.890246     5.845245     2.668854
 H     0.890246    -5.845245    -2.668854
 H     1.503527     0.731489     6.541289
 H    -1.503527    -0.731489    -6.541289
 H     2.708667     4.423407    -3.240641
 H    -2.708667    -4.423407     3.240641
 H    -0.537480     4.116560     2.461850
 H     0.537480    -4.116560    -2.461850
 H     1.479002    -0.167081     5.001460
 H    -1.479002     0.167081    -5.001460
 H     3.409796     3.625288    -4.668783
 H    -3.409796    -3.625288     4.668783
 H    -2.227611     4.672300     2.546461
 H     2.227611    -4.672300    -2.546461
 H     2.911398     0.790673     5.447310
 H    -2.911398    -0.790673    -5.447310
 H    -0.193337     4.550080    -4.322254
 H     0.193337    -4.550080     4.322254
 H     0.560417     6.366922     0.676784
 H    -0.560417    -6.366922    -0.676784
 H    -0.626115     1.953594     5.963244
 H     0.626115    -1.953594    -5.963244
 H    -0.783530     3.023188    -3.626774
 H     0.783530    -3.023188     3.626774
 H     0.200280     5.675640    -0.925539
 H    -0.200280    -5.675640     0.925539
 H    -0.803822     2.811884     4.412371
 H     0.803822    -2.811884    -4.412371
 H     0.236499     4.106003    -2.657048
 H    -0.236499    -4.106003     2.657048
 H     0.884143     4.644699     0.356425
 H    -0.884143    -4.644699    -0.356425
 H    -0.757693     1.035322     4.452364
 H     0.757693    -1.035322    -4.452364
 H     6.053046    -1.018576    -5.003711
 H    -6.053046     1.018576     5.003711
 H    -5.912396     3.988635    -3.447419
 H     5.912396    -3.988635     3.447419
 H     5.756022     5.122266     1.739022
 H    -5.756022    -5.122266    -1.739022
 H     4.451689    -0.512592    -5.585521
 H    -4.451689     0.512592     5.585521
 H    -4.333354     4.762225    -3.193875
 H     4.333354    -4.762225     3.193875
 H     4.125910     5.277797     2.430939
 H    -4.125910    -5.277797    -2.430939
 H     5.504115     0.646495    -4.730036
 H    -5.504115    -0.646495     4.730036
 H    -5.427512     4.483551    -1.812848
 H     5.427512    -4.483551     1.812848
 H     5.245034     4.029190     3.039638
 H    -5.245034    -4.029190    -3.039638
 H     6.564683    -1.255233    -2.576898
 H    -6.564683     1.255233     2.576898
 H    -6.413496     1.699295    -2.640660
 H     6.413496    -1.699295     2.640660
 H     6.424850     3.143819     0.371002
 H    -6.424850    -3.143819    -0.371002
 H     5.947376     0.381678    -2.228901
 H    -5.947376    -0.381678     2.228901
 H    -5.879318     2.104765    -0.988393
 H     5.879318    -2.104765     0.988393
 H     5.821718     2.000043     1.599984
 H    -5.821718    -2.000043    -1.599984
 H     5.306001    -1.020093    -1.339115
 H    -5.306001     1.020093     1.339115
 H    -5.177383     0.704436    -1.833492
 H     5.177383    -0.704436     1.833492
 H     5.241598     1.890488    -0.079141
 H    -5.241598    -1.890488     0.079141
 H     5.125874    -2.940924    -3.809796
 H    -5.125874     2.940924     3.809796
 H    -4.885881     2.088268    -4.623934
 H     4.885881    -2.088268     4.623934
 H     4.924415     4.949258    -0.554378
 H    -4.924415    -4.949258     0.554378
 H     3.844571    -2.771447    -2.589311
 H    -3.844571     2.771447     2.589311
 H    -3.608921     1.101411    -3.877560
 H     3.608921    -1.101411     3.877560
 H     3.691426     3.760478    -1.027463
 H    -3.691426    -3.760478     1.027463
 H     3.464370    -2.528444    -4.310790
 H    -3.464370     2.528444     4.310790
 H    -3.251920     2.764854    -4.397860
 H     3.251920    -2.764854     4.397860
 H     3.245467     5.133249     0.014316
 H    -3.245467    -5.133249    -0.014316
