   66
FINAL HEAT OF FORMATION = -2159.103707
Cl    14.089177     3.502363     8.064887
Cl    20.064229     5.569883     8.914458
 C    18.161984     3.588264     8.510981
 C    18.792731     2.205381     8.227466
 C    17.208046     1.630481     8.441855
 C    16.821877     3.123556     8.370326
 C    15.765799     4.004253     8.324741
 C    16.005078     5.411669     8.496313
 C    14.954937     6.371148     8.476484
 C    15.200596     7.713361     8.673380
 C    16.518384     8.165088     8.900830
 C    17.563017     7.265640     8.921505
 C    17.350751     5.873447     8.719606
 C    18.430324     4.923582     8.704807
 C    19.867425     1.664057     9.176584
 C    20.434144     2.455146    10.189031
 C    21.450808     1.973485    11.020444
 C    21.935525     0.674594    10.866601
 C    21.375472    -0.138319     9.877894
 C    20.358465     0.349194     9.054152
 C    19.386098     2.259639     6.690534
 C    18.526432     3.142957     5.755771
 C    20.797992     2.892225     6.741471
 C    19.559816     0.907546     5.959778
 C    16.678777     0.665883     7.377198
 C    15.740246     1.061186     6.410685
 C    15.246093     0.167380     5.454359
 C    15.678774    -1.158605     5.434844
 C    16.625733    -1.570891     6.376351
 C    17.118140    -0.671811     7.323864
 C    16.782650     1.106268     9.940215
 C    17.102635     2.136065    11.048950
 C    15.250703     0.890798     9.965531
 C    17.395172    -0.241652    10.390494
 H    13.936907     6.026145     8.306038
 H    14.372432     8.424827     8.654303
 H    16.714372     9.227552     9.059430
 H    18.578099     7.619063     9.092225
 H    20.084635     3.472856    10.340428
 H    21.862856     2.626997    11.793026
 H    22.732252     0.297112    11.511324
 H    21.724667    -1.165394     9.747311
 H    19.929403    -0.324675     8.316523
 H    18.498332     4.194550     6.071414
 H    18.969783     3.116185     4.747415
 H    17.494557     2.781770     5.663786
 H    21.523158     2.243480     7.252748
 H    21.153795     3.039386     5.708599
 H    20.808459     3.869625     7.235714
 H    18.611602     0.422620     5.710961
 H    20.078641     1.113631     5.009028
 H    20.192597     0.196310     6.504070
 H    15.376311     2.085027     6.395299
 H    14.515214     0.518864     4.722216
 H    15.291371    -1.859852     4.692423
 H    16.996237    -2.598786     6.369302
 H    17.883501    -1.019933     8.012559
 H    18.179256     2.290182    11.186637
 H    16.629976     3.111802    10.873047
 H    16.705996     1.750954    12.002162
 H    14.690687     1.824871     9.848474
 H    14.914323     0.187515     9.190318
 H    14.974567     0.463939    10.943572
 H    17.105340    -0.405429    11.441117
 H    16.995047    -1.092144     9.823967
 H    18.488497    -0.265912    10.351674
