   58
FINAL HEAT OF FORMATION = -1979.531911
 I    -0.384863     0.562800     4.656211
 I    -0.397042    -4.565230    -0.293617
 C     0.815489    -2.937750     4.402068
 C     0.844670    -4.178315     3.180370
 C     0.106910    -3.145270     2.347825
 C    -0.450804    -2.964351     1.110426
 C    -1.049697    -1.690828     0.813544
 C    -1.653613    -1.407121    -0.441835
 C    -2.222708    -0.181973    -0.715679
 C    -2.217126     0.835296     0.263813
 C    -1.642891     0.604606     1.495429
 C    -1.044527    -0.642667     1.823202
 C    -0.444173    -0.896148     3.105368
 C     0.108356    -2.128770     3.329717
 C     0.070543    -3.296423     5.676147
 C    -1.289198    -3.500484     5.893427
 C    -1.733069    -3.845539     7.178167
 C    -0.824180    -3.980590     8.233202
 C     0.538002    -3.727717     8.032852
 C     0.976712    -3.365335     6.757757
 C     2.283211    -2.873010     6.298499
 C     3.461799    -2.629445     7.006385
 C     4.515977    -1.973493     6.360018
 C     4.378456    -1.546274     5.034966
 C     3.202002    -1.808455     4.318268
 C     2.167847    -2.503871     4.939088
 C     0.182983    -5.493150     3.553168
 C    -1.158607    -5.796320     3.769416
 C    -1.516079    -7.103045     4.131497
 C    -0.540468    -8.095796     4.272268
 C     0.804297    -7.810612     4.008408
 C     1.157384    -6.514104     3.629091
 C     2.430218    -5.978722     3.125685
 C     3.649754    -6.612472     2.879199
 C     4.656498    -5.905881     2.210788
 C     4.432733    -4.595743     1.773863
 C     3.214667    -3.953240     2.038669
 C     2.227545    -4.632963     2.746765
 H    -1.658932    -2.190572    -1.199768
 H    -2.677497    -0.000576    -1.691708
 H    -2.667408     1.806409     0.048038
 H    -1.640207     1.391379     2.249924
 H    -2.010373    -3.367280     5.086808
 H    -2.798984    -4.003328     7.356008
 H    -1.183820    -4.257307     9.226815
 H     1.238536    -3.784424     8.869031
 H     3.552123    -2.918150     8.055978
 H     5.441588    -1.768919     6.902766
 H     5.191293    -0.997956     4.554015
 H     3.096538    -1.442626     3.297409
 H    -1.932040    -5.041209     3.632765
 H    -2.567318    -7.347075     4.298872
 H    -0.833518    -9.107225     4.562655
 H     1.558090    -8.598716     4.070345
 H     3.808322    -7.652072     3.174574
 H     5.613132    -6.390770     2.003653
 H     5.209847    -4.069180     1.215721
 H     3.040322    -2.943898     1.665465
