   62
FINAL HEAT OF FORMATION = -1981.902183
 I     3.200132     1.847675     6.647176
 I     6.901771     2.707832     0.603226
 C     2.904068     0.628512     3.090414
 C     3.680458     1.015056     1.590069
 C     4.653063     1.796059     2.480069
 C     5.821824     2.513839     2.437876
 C     6.312483     3.099537     3.656542
 C     7.504517     3.873721     3.707337
 C     7.949706     4.451748     4.876334
 C     7.216409     4.283520     6.070996
 C     6.057747     3.537616     6.069115
 C     5.562575     2.918718     4.888148
 C     4.370216     2.114180     4.878032
 C     3.977094     1.540224     3.695201
 C     3.034113    -0.853505     3.431154
 C     3.748266    -1.307777     4.548324
 C     3.847175    -2.673211     4.839081
 C     3.235809    -3.616949     4.013489
 C     2.528441    -3.181598     2.888235
 C     2.433986    -1.819838     2.601959
 C     1.483361     1.176677     3.301878
 C     1.264724     2.568421     3.298827
 C    -0.004718     3.107325     3.502460
 C    -1.100162     2.268472     3.726628
 C    -0.900525     0.888150     3.752951
 C     0.374402     0.350033     3.547794
 C     4.369139    -0.138728     0.842909
 C     5.426605    -0.836408     1.459187
 C     6.088776    -1.877657     0.810557
 C     5.719807    -2.250405    -0.485142
 C     4.688046    -1.558630    -1.119746
 C     4.024971    -0.514371    -0.466309
 C     2.785843     1.864874     0.691761
 C     1.578920     1.333872     0.198892
 C     0.741194     2.081499    -0.628448
 C     1.085712     3.390274    -0.981289
 C     2.272173     3.936392    -0.491320
 C     3.110103     3.181617     0.337511
 H     8.070563     4.010320     2.786264
 H     8.869229     5.040709     4.874798
 H     7.565534     4.741668     6.998691
 H     5.497491     3.405772     6.994409
 H     4.240602    -0.593642     5.206585
 H     4.409496    -2.994221     5.719040
 H     3.314182    -4.683045     4.238205
 H     2.054998    -3.906294     2.221961
 H     1.895109    -1.505066     1.707318
 H     2.100649     3.248127     3.134817
 H    -0.135644     4.191764     3.489304
 H    -2.095453     2.688393     3.889210
 H    -1.739612     0.214939     3.944533
 H     0.497849    -0.730022     3.600315
 H     5.742250    -0.563498     2.465942
 H     6.901750    -2.397748     1.322313
 H     6.238926    -3.064235    -0.996580
 H     4.395672    -1.821474    -2.139261
 H     3.242012     0.019975    -1.001052
 H     1.279222     0.322836     0.477921
 H    -0.190807     1.641576    -0.990518
 H     0.429827     3.979194    -1.626414
 H     2.555110     4.959315    -0.750475
 H     4.026820     3.635493     0.710795
