   74
FINAL HEAT OF FORMATION = -1244.761749
 C     0.828804     5.560333     9.031177
 C     1.592623     5.636190     7.648180
 C     0.875469     3.962684     9.690909
 C     1.828826     7.092730     7.169385
 C    -0.465340     3.700263    10.439859
 C    -0.597333     6.262959     8.703928
 C     2.066558     3.773123    10.720291
 C    -1.499320     6.519575     9.940270
 C     1.723746     7.963161     9.503012
 C     3.587733     2.559196     9.084362
 C     1.482840     6.544853    10.082974
 C    -0.335439     7.735226     8.159131
 C    -1.340033     5.520294     7.569903
 C     1.920268     2.436828    11.515462
 C     0.937411     1.360052     9.507150
 C     0.618191     6.715529    11.356352
 C     0.467021     7.741665     6.853808
 C     1.080629     2.710193     8.718765
 C     0.362878     8.620123     9.205038
 C     2.071940     1.242609    10.550929
 C    -0.551020     2.372984    11.203195
 C     3.454855     3.760445    10.038287
 C     3.451653     1.258033     9.885166
 C     2.466892     2.610653     8.031021
 C    -0.529738     5.546903     6.255810
 C    -0.415236     1.221328    10.206939
 C    -0.749962     7.339605    11.016086
 C     0.575275     2.336160    12.243888
 C     2.574102     7.902844     8.232360
 C    -0.493038     8.750037    10.468589
 C     0.849988     4.918271     6.492410
 C    -0.313884     6.986581     5.774172
 H     2.470379     6.166096    10.373700
 H     4.569437     2.591618     8.581804
 H    -1.531327     2.325310    11.708320
 H    -1.238078     1.258378     9.471419
 H     3.551926     7.437181     8.448688
 H     0.735703     3.847258     6.661920
 H     0.528539     9.620638     8.766156
 H     2.254059     8.551677    10.273171
 H     3.641354     4.698263     9.494899
 H     1.152522     7.388695    12.050730
 H     4.243906     1.186446    10.651299
 H     3.566474     0.385148     9.218903
 H    -1.337297     8.154733     7.952893
 H    -2.369343     7.108457     9.597265
 H    -1.446120     9.253803    10.230750
 H     0.536178     1.402912    12.832720
 H     0.495652     5.771679    11.900025
 H     2.050413     4.572850    11.469897
 H     0.457410     3.169695    12.958757
 H     2.780951     8.922624     7.863092
 H     2.588141     5.195028     7.774325
 H     4.234343     3.698958    10.818861
 H     0.281478     2.702916     7.963506
 H     2.739974     2.408629    12.256133
 H     0.238692     6.985249     4.818395
 H    -1.278470     7.491509     5.589304
 H    -1.550389     4.476898     7.853816
 H     2.437829     7.045413     6.248888
 H    -0.481053     0.242850    10.714625
 H    -1.293488     3.737917     9.717991
 H    -1.070407     4.970554     5.485633
 H     0.022574     9.370781    11.222294
 H    -0.643891     4.492697    11.168217
 H     2.486075     1.681512     7.433732
 H     2.655881     3.419315     7.321715
 H    -1.921990     5.603603    10.358801
 H    -1.367138     7.396363    11.929000
 H     0.624649     8.788053     6.535253
 H     1.046252     0.549964     8.764271
 H     1.459620     5.017090     5.576258
 H    -2.322453     6.000656     7.408867
 H     1.944179     0.301449    11.115701
