   23
FINAL HEAT OF FORMATION =  -739.939101
 C     7.880221     5.701278     9.893712
 C     8.070230     6.986536    10.381316
 C     7.050188     7.930224    10.237884
 C     5.859010     7.556671     9.605037
 C     5.718863     6.261294     9.136066
 N     6.720587     5.357792     9.284124
 C     6.527804     3.982499     8.768089
 C     7.564988     2.837324     8.846582
 C     5.422464     2.988176     9.218805
 C     6.241941     3.597837     7.290002
 C     6.291553     2.281176     8.129580
 I     6.026931     0.302770     7.394978
 H     8.633911     4.919335     9.972687
 H     9.013602     7.235579    10.867817
 H     7.180056     8.946436    10.614521
 H     5.038495     8.262284     9.472559
 H     4.819560     5.904572     8.635290
 H     7.776143     2.421001     9.840933
 H     8.463924     2.933200     8.222621
 H     4.388791     3.224714     8.932518
 H     5.501112     2.593943    10.240555
 H     7.059320     3.753451     6.573595
 H     5.260107     3.872808     6.881627
