   66
scf done: -1538.020658
 C    -0.000887     4.264382     1.556720
 C    -0.000708     4.733665     0.247597
 C    -0.000181     4.129732    -2.224817
 H    -0.001170     4.981110     2.384462
 H    -0.000803     5.810095     0.044763
 H    -0.000244     5.179370    -2.537796
 C    -0.000387     1.939020     0.829208
 C    -0.000742     2.873681     1.861811
 C    -0.000340     3.812049    -0.836384
 C     0.000076     3.113232    -3.174910
 C     0.000174     1.737609    -2.809830
 C     0.000042     1.401841    -1.466030
 C    -0.000202     2.424798    -0.496939
 C    -0.000226     0.404119     0.884004
 C    -1.272385    -0.115507     1.585442
 C    -2.245299     0.778243     2.080426
 C    -3.475913     0.351030     2.589559
 C    -3.794556    -1.012274     2.593895
 C    -2.849131    -1.919028     2.121030
 C    -1.577931    -1.508111     1.651482
 C    -0.678251    -2.574465     1.249371
 C     0.678673    -2.574254     1.249317
 C     1.578058    -1.507674     1.651441
 C     1.271968    -0.115163     1.585764
 C     0.000127     0.003320    -0.833775
 C    -1.352344    -0.625778    -1.223554
 C    -2.462161     0.234329    -1.047896
 C    -3.786734    -0.161879    -1.238843
 C    -4.059690    -1.469010    -1.658926
 C    -2.988767    -2.326946    -1.883390
 C    -1.632855    -1.946362    -1.680534
 C    -0.676917    -2.995917    -1.982513
 C     0.678060    -2.995648    -1.982762
 C     1.633672    -1.945859    -1.680518
 C     1.352739    -0.625433    -1.223308
 H    -0.001051     2.552861     2.908511
 H     0.000166     3.375259    -4.238102
 H     0.000324     0.960946    -3.580755
 H    -2.064686     1.851672     2.021976
 H    -4.196441     1.093355     2.947920
 H    -4.765285    -1.362978     2.958149
 H    -3.072667    -2.991507     2.121110
 H    -1.170528    -3.521906     0.999975
 H     1.171208    -3.521562     0.999837
 H    -2.282068     1.259294    -0.719755
 H    -4.595750     0.550418    -1.050953
 H    -5.087662    -1.810531    -1.815390
 H    -3.180575    -3.347612    -2.232718
 H    -1.146707    -3.941960    -2.280171
 H     1.148110    -3.941489    -2.280651
 H     2.282046     1.259737    -0.718927
 C     2.849458    -1.918225     2.120765
 C     3.794495    -1.011200     2.593904
 C     3.475139     0.351941     2.590306
 C     2.244344     0.778815     2.081302
 C     2.989718    -2.326121    -1.883094
 C     4.060410    -1.468087    -1.658033
 C     3.787090    -0.161085    -1.237782
 C     2.462395     0.234853    -1.047173
 H     3.073470    -2.990607     2.120421
 H     4.765460    -1.361569     2.957848
 H     4.195282     1.094454     2.949053
 H     2.063173     1.852184     2.023449
 H     3.181807    -3.346648    -2.232689
 H     5.088486    -1.809433    -1.814199
 H     4.595928     0.551266    -1.049367
