   68
scf done: -1614.123489
 C     1.562907     0.003397     1.105393
 C     2.453440     0.004427     2.192518
 C     3.879630     0.005507     2.012279
 C     4.440663     0.006064     0.728820
 C     3.519030     0.005686    -0.342951
 C     4.147344     0.003938    -1.609614
 C     3.294082     0.001051    -2.721318
 C     1.866499    -0.000042    -2.552897
 C     1.286591     0.001291    -1.282276
 C     2.150234     0.003949    -0.172746
 C     5.762358     0.005077     0.074497
 C     5.589183     0.003828    -1.298657
 C     0.031552     0.001177     0.995273
 C    -0.568759     1.274123     1.606709
 C     0.260211     2.248807     2.201467
 C    -0.222329     3.488491     2.633262
 C    -1.572987     3.812269     2.454895
 C    -2.418109     2.862266     1.886155
 C    -1.957999     1.582366     1.492372
 C    -2.969603     0.676055     0.980344
 C    -2.967765    -0.681476     0.980786
 C    -1.953846    -1.584740     1.493577
 C    -2.410622    -2.865665     1.887953
 C    -1.563145    -3.813068     2.457459
 C    -0.213456    -3.485438     2.636250
 C     0.265874    -2.244736     2.203891
 C    -0.565452    -1.272666     1.608067
 C    -0.178791    -0.000446    -0.831045
 C    -0.763001     1.350169    -1.269095
 C     0.069368     2.461029    -0.991006
 C    -0.308092     3.785610    -1.217441
 C    -1.561108     4.057893    -1.778799
 C    -2.386706     2.986427    -2.102690
 C    -2.027114     1.630726    -1.866207
 C    -3.032788     0.672209    -2.284980
 C    -3.030643    -0.683238    -2.284687
 C    -2.022177    -1.638270    -1.864762
 C    -2.377482    -2.995313    -2.100056
 C    -1.548903    -4.063913    -1.774400
 C    -0.297050    -3.787241    -1.212535
 C     0.076364    -2.461290    -0.987608
 C    -0.759213    -1.353196    -1.267410
 H     2.067293     0.004203     3.217401
 H     4.508039     0.005678     2.910146
 H     3.691121    -0.000619    -3.742763
 H     1.232509    -0.002391    -3.445237
 H     6.725545     0.005307     0.588935
 H     1.330583     2.058936     2.287909
 H     0.470755     4.211213     3.075786
 H    -1.961791     4.790341     2.755110
 H    -3.480780     3.089225     1.747347
 H    -3.886083     1.164418     0.628206
 H    -3.882952    -1.172482     0.628961
 H    -3.472639    -3.095555     1.748927
 H    -1.949364    -4.792045     2.758071
 H     0.481418    -4.206028     3.079443
 H     1.335693    -2.051954     2.290618
 H     1.051473     2.283183    -0.549953
 H     0.376140     4.595324    -0.946738
 H    -1.885959     5.086005    -1.966526
 H    -3.363166     3.177917    -2.561484
 H    -3.940129     1.140005    -2.687713
 H    -3.936481    -1.154113    -2.687199
 H    -3.353054    -3.190219    -2.559298
 H    -1.870540    -5.093207    -1.961222
 H     0.389353    -4.594596    -0.940308
 H     1.057817    -2.279938    -0.546477
 H     6.396047     0.002828    -2.034669
