   66
scf done: -2157.069456
Cl    -2.002681     3.078368    -0.808447
Cl    -1.938605    -3.065967     0.915650
 C    -0.717186    -0.682264     0.195861
 C     0.810147    -0.704658     0.403656
 C     0.786473     0.737981    -0.460943
 C    -0.734751     0.679731    -0.234480
 C    -1.922049     1.369442    -0.383943
 C    -3.168752     0.678220    -0.181884
 C    -4.428106     1.321124    -0.342721
 C    -5.618817     0.634487    -0.173860
 C    -5.603093    -0.737274     0.167447
 C    -4.397018    -1.395769     0.338844
 C    -3.152548    -0.724635     0.176537
 C    -1.890585    -1.385385     0.384682
 C     1.622561    -1.850360    -0.187542
 C     0.998445    -2.974196    -0.761569
 C     1.740035    -4.052307    -1.264588
 C     3.138590    -4.037006    -1.208471
 C     3.782211    -2.922311    -0.653830
 C     3.034490    -1.847909    -0.155475
 C     1.061552    -0.611386     2.018543
 C    -0.040106     0.201526     2.738558
 C     1.017711    -2.054358     2.577596
 C     2.404499    -0.008491     2.495098
 C     1.589690     1.882635     0.137730
 C     0.967288     2.954199     0.805717
 C     1.712033     3.999300     1.370599
 C     3.109157     4.002520     1.279450
 C     3.749389     2.939201     0.627628
 C     3.000487     1.895741     0.071585
 C     1.013847     0.649454    -2.071485
 C     0.089272    -0.386587    -2.752589
 C     0.658404     2.028738    -2.673860
 C     2.457626     0.347205    -2.537900
 H    -4.441986     2.379098    -0.611829
 H    -6.570919     1.157152    -0.307253
 H    -6.542899    -1.282285     0.298557
 H    -4.387436    -2.453711     0.608212
 H    -0.089639    -3.010376    -0.821632
 H     1.214003    -4.906821    -1.702509
 H     3.721068    -4.878123    -1.597279
 H     4.875572    -2.880222    -0.613200
 H     3.567128    -0.983327     0.242764
 H    -1.038512    -0.252239     2.641641
 H     0.205176     0.238309     3.814549
 H    -0.092211     1.240597     2.379729
 H     1.894436    -2.641799     2.261254
 H     1.020975    -2.006207     3.680816
 H     0.115021    -2.598591     2.268978
 H     2.460212     1.079086     2.365867
 H     2.485973    -0.215295     3.577502
 H     3.284881    -0.468652     2.025553
 H    -0.119356     2.974500     0.893805
 H     1.190191     4.813161     1.884448
 H     3.693337     4.817768     1.717830
 H     4.842069     2.910158     0.563568
 H     3.531037     1.058252    -0.381794
 H     0.334584    -1.420764    -2.471974
 H    -0.976513    -0.206836    -2.541927
 H     0.226745    -0.301769    -3.844952
 H    -0.413963     2.252765    -2.595478
 H     1.220181     2.846509    -2.193815
 H     0.918196     2.023336    -3.747290
 H     2.428005     0.185425    -3.629946
 H     3.134364     1.197924    -2.365916
 H     2.886770    -0.557500    -2.087078
