   66
scf done: -2157.054711
Cl     2.910575     2.563841     0.604350
Cl     0.710587    -3.238992    -0.694331
 C     0.441251    -0.528754    -0.351072
 C    -1.013625    -0.234774     0.021398
 C    -0.478930     1.411867     0.070800
 C     0.916772     0.774319    -0.046474
 C     2.271800     1.022867     0.046943
 C     3.206768    -0.024472    -0.272879
 C     4.614180     0.185099    -0.268158
 C     5.498299    -0.835227    -0.577402
 C     5.013003    -2.124060    -0.901240
 C     3.650320    -2.370069    -0.909612
 C     2.711037    -1.346569    -0.604413
 C     1.294760    -1.587337    -0.578249
 C    -1.293893    -0.997494     1.357821
 C    -0.231823    -1.446504     2.177014
 C    -0.458479    -2.189965     3.340718
 C    -1.762475    -2.519974     3.731029
 C    -2.829090    -2.100179     2.929041
 C    -2.596036    -1.363970     1.758958
 C    -2.126259    -0.583431    -0.962623
 C    -1.940249    -1.541631    -1.976151
 C    -2.977470    -1.883885    -2.853074
 C    -4.235296    -1.277305    -2.737174
 C    -4.441614    -0.327283    -1.728305
 C    -3.400766     0.009926    -0.852225
 C    -0.821787     2.228312     1.403493
 C    -2.331653     2.159457     1.731414
 C    -0.442523     3.734579     1.382892
 C    -0.065969     1.671378     2.638422
 C    -0.709212     2.213402    -1.335702
 C    -0.616814     1.324338    -2.608982
 C    -2.056980     2.960297    -1.453094
 C     0.437213     3.241733    -1.552265
 H     4.991450     1.179516    -0.019830
 H     6.575080    -0.640130    -0.571805
 H     5.712933    -2.928432    -1.147282
 H     3.271805    -3.364347    -1.157650
 H     0.799319    -1.198940     1.918082
 H     0.397614    -2.513706     3.941415
 H    -1.942089    -3.105538     4.638172
 H    -3.858422    -2.357688     3.199259
 H    -3.455186    -1.099459     1.141028
 H    -0.962547    -2.005613    -2.106515
 H    -2.794035    -2.626020    -3.636904
 H    -5.044923    -1.540689    -3.425032
 H    -5.415953     0.160219    -1.619185
 H    -3.582785     0.752787    -0.072966
 H    -2.669083     1.124847     1.891074
 H    -2.958371     2.627270     0.956991
 H    -2.515135     2.706186     2.673517
 H    -0.933015     4.313845     0.589321
 H    -0.767068     4.170409     2.344440
 H     0.645141     3.885677     1.311564
 H    -0.196418     2.376676     3.478062
 H     1.016285     1.577284     2.455349
 H    -0.448139     0.700071     2.970647
 H     0.210357     0.597860    -2.566441
 H    -1.544506     0.784646    -2.830474
 H    -0.417417     1.990127    -3.467030
 H    -2.914291     2.276609    -1.388285
 H    -2.098105     3.432143    -2.451343
 H    -2.189169     3.763431    -0.714452
 H     0.173679     3.865858    -2.424201
 H     0.624397     3.914289    -0.710458
 H     1.382103     2.730203    -1.794493
