   66
scf done: -1139.308121
 N     1.369305    -0.271393     0.857956
 C     2.645094    -0.744512     0.368268
 C     0.854557     0.979400     0.513205
 C     2.706692    -1.585326    -0.764443
 C     3.971741    -2.019058    -1.205095
 H     4.021999    -2.664721    -2.090308
 C     3.823156    -0.415416     1.088854
 C     5.054827    -0.889109     0.618825
 H     5.963973    -0.632704     1.175758
 C     5.155850    -1.675470    -0.542518
 C     1.481550    -2.074712    -1.496664
 H     0.558286    -1.808279    -0.964121
 H     1.520734    -3.171923    -1.613790
 H     1.425327    -1.644047    -2.512990
 B     0.691317     1.367571    -1.157254
 H     1.162474     0.619966    -1.957887
 B     0.787265     2.324000     1.513759
 H     1.292823     2.198648     2.591001
 C     6.501311    -2.130578    -1.053903
 H     7.161574    -2.449802    -0.229313
 H     7.020966    -1.312244    -1.585781
 H     6.402240    -2.971790    -1.759533
 C     3.770824     0.410414     2.351110
 H     3.409541     1.433233     2.155299
 H     4.771526     0.483940     2.805512
 H     3.095701    -0.025850     3.110763
 B     1.711225     2.314277    -0.010373
 H     2.898750     2.189094    -0.066446
 B     0.746979     3.152504    -1.234243
 H     1.290538     3.722322    -2.136109
 B     0.755401     3.748277     0.455600
 H     1.310943     4.755455     0.789383
 H     1.194249    -0.491501     1.841026
 N    -1.369210    -0.271498    -0.857700
 C    -2.645091    -0.744501    -0.368133
 C    -0.854466     0.979333    -0.513137
 C    -2.706883    -1.585131     0.764713
 C    -3.972002    -2.018755     1.205252
 H    -4.022411    -2.664268     2.090567
 C    -3.823035    -0.415510    -1.088956
 C    -5.054786    -0.889113    -0.619037
 H    -5.963842    -0.632811    -1.176164
 C    -5.156003    -1.675262     0.542428
 C    -1.481862    -2.074455     1.497180
 H    -0.558477    -1.807488     0.965120
 H    -1.520723    -3.171739     1.613771
 H    -1.426208    -1.644253     2.513730
 B    -0.691205     1.367737     1.157285
 H    -1.162380     0.620252     1.958018
 B    -0.787137     2.323798    -1.513880
 H    -1.292698     2.198278    -2.591097
 C    -6.501545    -2.130230     1.053725
 H    -7.162119    -2.448499     0.229021
 H    -7.020732    -1.312115     1.586401
 H    -6.402673    -2.972053     1.758658
 C    -3.770544     0.410129    -2.351332
 H    -3.409883     1.433168    -2.155502
 H    -4.771081     0.483077    -2.806190
 H    -3.094841    -0.025877    -3.110607
 B    -1.711104     2.314292     0.010259
 H    -2.898631     2.189157     0.066359
 B    -0.746845     3.152676     1.234015
 H    -1.290401     3.722631     2.135796
 B    -0.755263     3.748219    -0.455914
 H    -1.310807     4.755356    -0.789817
 H    -1.193869    -0.491954    -1.840638
