   62
scf done: -1979.955800
 I     3.552744     1.547896    -0.301562
 I    -3.552823     1.547572     0.301954
 C     0.844927    -1.028081    -0.202077
 C    -0.844822    -1.028189     0.201970
 C    -0.697647     0.486779     0.115401
 C    -1.428618     1.651154     0.154138
 C    -0.728467     2.904803     0.063701
 C    -1.396400     4.159744     0.115890
 C    -0.705026     5.358223     0.057751
 C     0.704610     5.358290    -0.057071
 C     1.396091     4.159877    -0.115272
 C     0.728265     2.904875    -0.063176
 C     1.428527     1.651299    -0.153727
 C     0.697666     0.486852    -0.115043
 C     1.061016    -1.569556    -1.602438
 C     1.550780    -0.764778    -2.645458
 C     1.704668    -1.279948    -3.941138
 C     1.366620    -2.610395    -4.217613
 C     0.872169    -3.423852    -3.186964
 C     0.719907    -2.906863    -1.896385
 C     1.793906    -1.598016     0.845553
 C     1.881155    -0.977779     2.111516
 C     2.726059    -1.478564     3.105980
 C     3.518774    -2.608584     2.855833
 C     3.460701    -3.220356     1.597477
 C     2.610267    -2.718690     0.601702
 C    -1.793774    -1.597836    -0.845845
 C    -1.880985    -0.977245    -2.111643
 C    -2.725884    -1.477728    -3.106254
 C    -3.518651    -2.607787    -2.856428
 C    -3.460612    -3.219912    -1.598252
 C    -2.610170    -2.718549    -0.602323
 C    -1.060896    -1.570121     1.602162
 C    -0.719722    -2.907499     1.895696
 C    -0.871987    -3.424905     3.186105
 C    -1.366500    -2.611800     4.217003
 C    -1.704608    -1.281285     3.940943
 C    -1.550723    -0.765692     2.645428
 H    -2.486191     4.159215     0.211510
 H    -1.252962     6.304308     0.102897
 H     1.252462     6.304427    -0.102161
 H     2.485882     4.159445    -0.210876
 H     1.806329     0.279610    -2.448468
 H     2.086247    -0.631354    -4.736319
 H     1.479765    -3.010702    -5.230106
 H     0.588189    -4.461157    -3.390728
 H     0.299447    -3.540657    -1.109768
 H     1.268019    -0.097966     2.324423
 H     2.764462    -0.981655     4.080518
 H     4.182441    -3.001667     3.632635
 H     4.086604    -4.091996     1.379539
 H     2.595488    -3.198327    -0.379695
 H    -1.267787    -0.097419    -2.324303
 H    -2.764256    -0.980564    -4.080662
 H    -4.182331    -3.000605    -3.633354
 H    -4.086545    -4.091587    -1.380554
 H    -2.595412    -3.198494     0.378923
 H    -0.299196    -3.541020     1.108894
 H    -0.587978    -4.462265     3.389554
 H    -1.479630    -3.012438     5.229366
 H    -2.086229    -0.632961     4.736325
 H    -1.806319     0.278746     2.448763
