   54
scf done: -1306.020751
 C     0.000206     0.647638     0.865882
 C    -0.000135     0.647321    -0.865632
 C     0.000056    -1.924167     0.683071
 C    -0.000239    -1.924588    -0.683294
 C    -1.232093    -0.022265     1.446667
 C    -2.332951     0.644220     1.992341
 H    -2.342407     1.738629     2.025499
 C    -3.424088    -0.094969     2.480958
 H    -4.283567     0.428860     2.911361
 C    -3.419718    -1.494175     2.413107
 H    -4.275315    -2.063250     2.790503
 C    -2.323134    -2.173521     1.853962
 H    -2.320778    -3.265411     1.779472
 C    -1.234888    -1.442588     1.375414
 C     1.232667    -0.022393     1.446186
 C     2.333559     0.643971     1.991907
 H     2.343168     1.738384     2.025000
 C     3.424612    -0.095328     2.480559
 H     4.284051     0.428417     2.911139
 C     3.420125    -1.494527     2.412665
 H     4.275655    -2.063692     2.790077
 C     2.323496    -2.173758     1.853459
 H     2.321092    -3.265642     1.778831
 C     1.235321    -1.442728     1.374929
 C    -1.232707    -0.022533    -1.445833
 C    -2.333787     0.644154    -1.990893
 H    -2.343308     1.738573    -2.023570
 C    -3.424960    -0.094862    -2.479643
 H    -4.284648     0.429100    -2.909470
 C    -3.420461    -1.494108    -2.412563
 H    -4.275943    -2.063043    -2.790414
 C    -2.323746    -2.173659    -1.853941
 H    -2.321377    -3.265580    -1.779835
 C    -1.235536    -1.442892    -1.375102
 C     1.232149    -0.022682    -1.446305
 C     2.333150     0.643888    -1.991654
 H     2.342720     1.738309    -2.024426
 C     3.424203    -0.095221    -2.480541
 H     4.283835     0.428658    -2.910562
 C     3.419614    -1.494459    -2.413367
 H     4.275060    -2.063493    -2.791173
 C     2.322944    -2.173901    -1.854526
 H     2.320459    -3.265831    -1.780549
 C     1.234855    -1.443064    -1.375521
 C     0.000325     2.154593     0.700232
 C     0.000677     3.335712     1.443383
 H     0.000939     3.346772     2.538195
 C     0.000585     4.536415     0.703297
 H     0.000863     5.494219     1.233886
 C     0.000164     4.536144    -0.704587
 H     0.000120     5.493733    -1.235559
 C    -0.000198     3.335098    -1.444126
 H    -0.000539     3.345570    -2.538934
 C    -0.000079     2.154353    -0.700400
