   74
scf done: -1243.169224
 C    -0.625398    -0.029169    -0.123679
 C    -0.967051    -1.542504    -0.414345
 C     1.039148     0.186115     0.179266
 C    -2.399641    -1.742573    -0.971153
 C     1.207362     1.316302     1.234995
 C    -1.702534     0.383707     1.004948
 C     1.833506     0.602800    -1.122029
 C    -1.754586     1.894955     1.354056
 C    -2.452779     0.580165    -1.875327
 C     2.756540    -1.720573    -1.572543
 C    -1.022291     0.873212    -1.355136
 C    -3.165800     0.122438     0.444508
 C    -1.566830    -0.506147     2.260155
 C     3.282009     1.070956    -0.780826
 C     3.364893    -0.585026     1.065914
 C    -0.962649     2.386471    -1.031551
 C    -3.417240    -1.353103     0.118464
 C     1.904685    -1.038761     0.717871
 C    -3.470827     0.983862    -0.791893
 C     4.088873    -0.116312    -0.216470
 C     2.651075     1.736319     1.536182
 C     1.943582    -0.546554    -2.150641
 C     4.180177    -1.242451    -1.252004
 C     2.099290    -2.217041    -0.270900
 C    -1.839822    -1.989748     1.929064
 C     3.403292     0.533467     2.109292
 C    -1.964341     2.752437     0.083937
 C     3.295446     2.222805     0.230877
 C    -2.614722    -0.900160    -2.231862
 C    -3.375763     2.476335    -0.456785
 C    -0.867711    -2.454633     0.834931
 C    -3.266852    -2.182236     1.398377
 H    -0.346414     0.660365    -2.199030
 H     2.791926    -2.546422    -2.307586
 H     2.627020     2.560045     2.274994
 H     2.923860     0.201955     3.050828
 H    -1.879691    -1.187469    -3.009397
 H     0.143619    -2.508917     1.248367
 H    -4.494454     0.742958    -1.143704
 H    -2.612138     1.202133    -2.779101
 H     0.945855    -0.894731    -2.469629
 H    -1.236507     2.944427    -1.948898
 H     4.686004    -0.877356    -2.167013
 H     4.783766    -2.081605    -0.855032
 H    -3.851204     0.420028     1.265958
 H    -2.628409     2.044288     2.020581
 H    -4.140015     2.744898     0.297890
 H     4.335834     2.558533     0.405571
 H     0.055531     2.716738    -0.776129
 H     1.348367     1.465706    -1.603531
 H     2.734345     3.092615    -0.163836
 H    -3.622517    -1.084755    -2.651860
 H    -0.285773    -1.908867    -1.197946
 H     2.445695    -0.162856    -3.060582
 H     1.471904    -1.396651     1.669327
 H     3.747281     1.404143    -1.730736
 H    -3.451979    -3.255083     1.197076
 H    -4.016542    -1.853349     2.144153
 H    -0.560670    -0.406788     2.706476
 H    -2.512908    -2.817609    -1.217511
 H     4.452807     0.792946     2.349218
 H     0.733606     0.998812     2.179397
 H    -1.690692    -2.599460     2.840124
 H    -3.573763     3.087893    -1.358651
 H     0.680655     2.216289     0.899209
 H     2.767216    -2.958394     0.211095
 H     1.172499    -2.756105    -0.499504
 H    -0.891120     2.235585     1.936547
 H    -1.859610     3.823540     0.339752
 H    -4.444997    -1.460391    -0.284039
 H     3.883611    -1.478964     1.466837
 H    -1.129562    -3.486433     0.526842
 H    -2.287236    -0.155417     3.026432
 H     5.106574     0.231593     0.052878
