   28
scf done:  -442.206992
 B     0.376209     6.651101     5.266712
 H     0.860553     6.073354     6.196437
 B    -1.992857     7.599280     3.934599
 H    -3.178978     7.661697     3.783514
 B    -1.209754     6.166701     4.636505
 H    -1.838173     5.209748     4.987330
 B    -0.938323     8.106009     2.573831
 H    -1.367210     8.466000     1.515135
 B     0.275172     5.893384     3.664115
 H     0.633132     4.803120     3.321651
 B     0.560245     8.413648     4.998550
 H     1.178904     9.119602     5.741206
 B     1.408881     7.251918     3.952550
 H     2.581357     7.051269     3.844562
 B     0.623440     8.685516     3.239656
 H     1.236568     9.508294     2.627928
 B    -1.029607     7.753173     5.420036
 H    -1.564381     7.976532     6.467452
 B    -0.894835     8.978945     4.117689
 H    -1.327445    10.090867     4.213993
 C     0.507433     7.165695     2.533617
 C    -1.187182     6.467548     2.982024
 N     1.030239     6.836172     1.285034
 N    -1.733849     5.663372     1.966658
 H    -1.883105     4.700906     2.278886
 H    -2.602369     6.054039     1.593785
 H     0.500644     7.230988     0.506114
 H     1.178391     5.833624     1.157730
