   54
scf done:  -982.248253
 B    -2.197341    -0.469397     1.261810
 B    -3.168508     1.041406     1.370169
 B    -3.130975     1.676006    -0.297922
 B    -2.194581     0.465828    -1.260542
 B    -3.976005    -0.529751     1.341349
 B    -4.573996     0.813758     0.313931
 B    -3.973277     0.514516    -1.348289
 C    -1.813217     0.929575     0.382791
 N    -0.556970     1.456736     0.601039
 H    -1.426771    -0.794249     2.119586
 H    -4.546530     0.908162    -2.323009
 H    -3.044447     1.741279     2.333093
 H    -1.422217     0.795487    -2.114770
 H    -4.551122    -0.927166     2.313440
 H    -3.018072     2.839335    -0.554413
 H    -5.587766     1.411734     0.534046
 C    -0.083492     2.658681    -0.089853
 B    -3.121186    -1.685648     0.294789
 B    -3.155296    -1.051348    -1.373220
 B    -4.566979    -0.833115    -0.323710
 C    -1.805396    -0.929825    -0.379405
 N    -0.543275    -1.447963    -0.591247
 C    -0.072253    -2.653709     0.096479
 H    -0.497527    -2.629247     1.114109
 H    -0.458619    -3.572869    -0.388735
 C     1.440304    -2.688510     0.159607
 C     2.157439    -3.791213    -0.332100
 H     1.613707    -4.632097    -0.777959
 C     3.558006    -3.822474    -0.255145
 H     4.105100    -4.688109    -0.641981
 C     4.253594    -2.744410     0.308909
 H     5.346577    -2.765944     0.366646
 C     3.543835    -1.635934     0.798351
 H     4.078537    -0.786203     1.234603
 C     2.146276    -1.610366     0.725345
 H     1.588589    -0.742437     1.090697
 H    -3.001860    -2.848173     0.552004
 H    -3.021904    -1.750405    -2.335553
 H    -5.575717    -1.437822    -0.548518
 H    -0.201343    -1.341322    -1.546838
 C     1.429310     2.692364    -0.153883
 C     2.143159     3.821979     0.278003
 C     3.543162     3.855264     0.194133
 C     4.241721     2.752346    -0.315910
 C     3.535180     1.616898    -0.743925
 C     2.137887     1.589038    -0.664897
 H    -0.215219     1.349256     1.556418
 H    -0.468716     3.580219     0.391870
 H    -0.508944     2.632171    -1.107528
 H     1.597382     4.682221     0.682556
 H     4.087703     4.741902     0.534246
 H     5.334439     2.775404    -0.378170
 H     4.071868     0.747289    -1.136446
 H     1.582234     0.700693    -0.980740
