   50
scf done:  -979.838053
 B     5.737361     3.518168     3.607875
 B     4.199973     4.419712     3.619432
 B     3.589344     4.419690     5.288159
 B     5.743948     5.291712     3.589921
 B     4.409739     5.854612     4.642292
 C     4.430224     3.078304     4.649767
 C     2.697887     1.663900     4.015724
 H     2.060329     2.537902     3.782214
 N     3.903788     1.793939     4.457208
 C     2.101073     0.345343     3.797388
 C     0.779445     0.259532     3.313803
 H     0.221152     1.180083     3.109468
 C     0.186721    -0.989650     3.097006
 H    -0.839298    -1.050656     2.721591
 C     0.911235    -2.160904     3.362165
 H     0.449083    -3.138749     3.193143
 C     2.230277    -2.082406     3.844775
 H     2.791644    -2.999341     4.050192
 C     2.824482    -0.838760     4.062128
 H     3.848457    -0.748407     4.436780
 H     2.426820     4.251636     5.515727
 H     6.043820     2.728161     2.770506
 H     3.458897     4.251679     2.695284
 H     6.103879     5.871597     2.606431
 H     3.798909     6.859625     4.418787
 B     4.756147     3.518179     6.289316
 B     6.293536     4.419721     6.277752
 B     6.904166     4.419685     4.609025
 B     4.749563     5.291724     6.307257
 B     6.083772     5.854614     5.254880
 C     6.063284     3.078305     5.247428
 C     7.795619     1.663904     5.881482
 H     8.433180     2.537906     6.114979
 N     6.589718     1.793941     5.439997
 C     8.392437     0.345348     6.099810
 C     9.714070     0.259539     6.583384
 H    10.272362     1.180091     6.787716
 C    10.306798    -0.989642     6.800175
 H    11.332820    -1.050646     7.175582
 C     9.582285    -2.160898     6.535019
 H    10.044440    -3.138742     6.704036
 C     8.263238    -2.082401     6.052419
 H     7.701872    -2.999337     5.847005
 C     7.669029    -0.838756     5.835073
 H     6.645051    -0.748405     5.460430
 H     8.066689     4.251627     4.381459
 H     4.449687     2.728180     7.126692
 H     7.034612     4.251694     7.201902
 H     4.389632     5.871618     7.290742
 H     6.694604     6.859627     5.478377
