   72
scf done: -1217.825168
 N     1.604339     0.536922     0.272334
 N    -1.629668     0.609540     0.311786
 C     4.136355    -3.104071     0.456328
 H     3.917192    -4.111840     0.829477
 C     3.076865    -2.301151     0.006150
 C    -3.347838    -0.953088    -0.475195
 C     3.350354    -0.997625    -0.473153
 C     1.026327     1.795859     0.192021
 C     2.209420    -0.107905    -0.914587
 H     2.561887     0.663022    -1.620643
 H     1.433220    -0.694647    -1.437942
 C     5.464218    -2.647153     0.447952
 B    -1.417634     3.131457    -0.650298
 C    -0.980496     1.817139     0.259550
 B     0.046253     2.176446    -1.129672
 C    -5.672049    -1.117460     0.226263
 H    -6.618028    -0.623784     0.480138
 C     4.678510    -0.506274    -0.466676
 C    -3.244949    -2.363215    -0.425300
 C     5.710512    -1.343231    -0.010554
 H     6.738155    -0.960554    -0.006682
 C    -2.154221    -0.101032    -0.859233
 H    -1.365317    -0.711189    -1.336517
 H    -2.448481     0.669228    -1.591805
 B     1.512620     3.135463    -0.704460
 B     0.034884     2.207377     1.563734
 C    -4.576695    -0.323966    -0.145660
 B     0.045509     3.954172    -1.239033
 C    -4.368665    -3.119541    -0.048182
 H    -4.281792    -4.212101    -0.010041
 C    -5.592047    -2.518976     0.280607
 B    -1.406027     3.194523     1.134870
 B     1.516860     3.118495     1.075537
 C     6.595458    -3.537104     0.903982
 H     6.986817    -4.143784     0.066126
 H     6.267360    -4.239817     1.688294
 H     7.438785    -2.947751     1.300971
 C     1.661151    -2.829943     0.046859
 H     1.606804    -3.775048     0.610607
 H     1.269251    -3.027724    -0.968398
 H     0.975973    -2.105192     0.521445
 B    -0.813548     4.579483     0.207302
 C    -1.960316    -3.087153    -0.767336
 H    -2.074482    -4.172370    -0.613915
 H    -1.114899    -2.752772    -0.141795
 H    -1.662043    -2.933611    -1.820528
 B     0.952916     4.559309     0.190002
 C    -4.729287     1.177734    -0.190019
 H    -5.761476     1.474549     0.055103
 H    -4.493362     1.585393    -1.190023
 H    -4.048160     1.679882     0.518749
 B     0.080081     3.991249     1.647605
 C    -6.795315    -3.348330     0.660575
 H    -7.323530    -2.918705     1.529230
 H    -6.510628    -4.383594     0.910639
 H    -7.524952    -3.396132    -0.168846
 C     5.005443     0.896727    -0.927605
 H     6.073597     1.118555    -0.774383
 H     4.422079     1.660296    -0.382805
 H     4.788584     1.039254    -2.002050
 H     0.005635     1.411246    -2.046606
 H    -2.401499     3.089619     1.790017
 H     0.053668     1.437660     2.482216
 H     1.606487     5.562780     0.178504
 H    -2.415126     3.036425    -1.303720
 H     2.518003     2.974837     1.718508
 H    -1.443936     5.597534     0.188616
 H     0.015767     4.520933    -2.293503
 H     2.504449     3.004579    -1.362389
 H     0.117116     4.574595     2.692788
 H     2.154022     0.402902     1.122827
 H    -1.505818     0.060775     1.160836
