   55
scf done: -1020.288128
 B    -2.303499    -0.049374    -1.460915
 H    -1.539477    -0.144824    -2.371859
 B    -3.083220     1.442734    -0.965159
 H    -2.910650     2.424209    -1.624381
 B    -2.979861     1.557849     0.819797
 H    -2.785651     2.616193     1.339451
 B    -2.179023     0.124127     1.473785
 H    -1.336581     0.154330     2.315417
 B    -3.074292    -1.321266     1.036443
 H    -2.920335    -2.315771     1.681837
 B    -3.135603    -1.430768    -0.754758
 H    -3.029805    -2.495676    -1.287268
 B    -4.044454    -0.006533    -1.369063
 H    -4.689145    -0.071518    -2.375554
 B    -3.912605     0.190864     1.517635
 H    -4.473168     0.291994     2.570455
 B    -4.527190    -0.792960     0.157700
 H    -5.546107    -1.414820     0.245236
 B    -4.483391     0.998859     0.032032
 H    -5.468398     1.678586     0.039599
 N    -0.351767     1.189804    -0.201710
 N    -0.404991    -1.192883     0.074860
 C    -1.728152     0.835695    -0.083424
 C    -1.774524    -0.786850     0.057382
 C     0.401392    -0.049975    -0.448791
 H     1.377567    -0.005575     0.058761
 H     0.580437    -0.185365    -1.536656
 C    -0.088315    -2.471460    -0.565345
 H    -0.234708    -2.423414    -1.668416
 H    -0.803834    -3.217013    -0.175275
 C     1.335034    -2.884740    -0.247343
 C     1.810064    -2.821742     1.076276
 H     1.142644    -2.449159     1.860574
 C     3.119651    -3.213386     1.378156
 H     3.479432    -3.158873     2.410762
 C     3.969400    -3.675983     0.360924
 H     4.993617    -3.981515     0.597238
 C     3.503353    -3.738843    -0.959222
 H     4.162606    -4.091049    -1.758978
 C     2.193299    -3.339355    -1.261294
 H     1.832402    -3.378522    -2.295382
 C     0.209614     2.085254     0.822350
 H     0.345898     1.570320     1.796172
 H    -0.532875     2.885606     0.982453
 C     1.524235     2.678873     0.360359
 C     2.625365     2.728090     1.231037
 H     2.533481     2.308086     2.239350
 C     3.834060     3.308757     0.819923
 H     4.684465     3.340281     1.508493
 C     3.953599     3.837429    -0.472293
 H     4.897421     4.286706    -0.797210
 C     2.860077     3.782636    -1.351086
 H     2.949300     4.190785    -2.363071
 C     1.652820     3.207183    -0.937765
 H     0.798646     3.150388    -1.620346
