   68
scf done: -1614.292456
 C     1.518971    -0.000395     1.113474
 C     2.375368    -0.000124     2.205262
 C     3.793689    -0.000451     2.055030
 C     4.373623    -0.001167     0.800641
 C     3.486626    -0.001570    -0.277709
 C     4.127833    -0.001548    -1.519123
 C     3.305877    -0.001168    -2.630167
 C     1.885946    -0.000839    -2.489657
 C     1.294135    -0.000792    -1.244735
 C     2.130951    -0.001133    -0.135223
 C     5.700726    -0.001112     0.173322
 C     5.556299    -0.001331    -1.180204
 C    -0.004677     0.000027     0.942712
 C    -0.616306     1.252763     1.589419
 C     0.185188     2.189603     2.244897
 C    -0.319533     3.364566     2.774668
 C    -1.665539     3.661261     2.642677
 C    -2.479081     2.755134     1.996017
 C    -1.990289     1.544897     1.493536
 C    -2.976353     0.668404     0.892079
 C    -2.976664    -0.667266     0.892123
 C    -1.990936    -1.544130     1.493534
 C    -2.480098    -2.754313     1.995800
 C    -1.666903    -3.660647     2.642584
 C    -0.320888    -3.364167     2.775071
 C     0.184218    -2.189315     2.245452
 C    -0.616881    -1.252351     1.589629
 C    -0.165355    -0.000094    -0.789820
 C    -0.724473     1.345597    -1.279966
 C     0.098834     2.443682    -0.997579
 C    -0.222605     3.746413    -1.322118
 C    -1.411339     4.009909    -1.982010
 C    -2.232672     2.950427    -2.291544
 C    -1.923811     1.618806    -1.962242
 C    -2.926879     0.668110    -2.397333
 C    -2.927404    -0.665737    -2.397603
 C    -1.925245    -1.617354    -1.962479
 C    -2.235217    -2.948673    -2.291884
 C    -1.414945    -4.008922    -1.982152
 C    -0.226121    -3.746556    -1.321983
 C     0.096467    -2.444113    -0.997410
 C    -0.725781    -1.345250    -1.279959
 H     1.978712     0.000475     3.212994
 H     4.394774     0.000019     2.956385
 H     3.714956    -0.000934    -3.633343
 H     1.279313    -0.000432    -3.385877
 H     6.644109    -0.000915     0.698621
 H     1.247552     2.024503     2.317116
 H     0.351391     4.056502     3.266991
 H    -2.073434     4.584321     3.032834
 H    -3.535380     2.965108     1.882064
 H    -3.846455     1.166042     0.480067
 H    -3.847025    -1.164513     0.480184
 H    -3.536415    -2.964051     1.881572
 H    -2.075033    -4.583722     3.032467
 H     0.349686    -4.056181     3.267757
 H     1.246578    -2.024347     2.318087
 H     1.035109     2.275784    -0.487682
 H     0.455907     4.545839    -1.056418
 H    -1.690507     5.019592    -2.252357
 H    -3.161050     3.136255    -2.817243
 H    -3.809722     1.134982    -2.819570
 H    -3.810638    -1.131758    -2.819951
 H    -3.163596    -3.133649    -2.817874
 H    -1.695057    -5.018348    -2.252503
 H     0.451554    -4.546627    -1.056101
 H     1.032810    -2.277069    -0.487337
 H     6.369320    -0.001355    -1.891049
