   62
scf done: -1980.181401
 I     3.512955     1.542520    -0.234985
 I    -3.513355     1.541396     0.235488
 C     0.821658    -1.031141    -0.175761
 C    -0.821388    -1.031409     0.175496
 C    -0.692771     0.477558     0.101784
 C    -1.420145     1.625735     0.129721
 C    -0.717495     2.866785     0.051069
 C    -1.382733     4.111669     0.092579
 C    -0.700407     5.295137     0.046187
 C     0.698891     5.295348    -0.045181
 C     1.381565     4.112091    -0.091709
 C     0.716709     2.866999    -0.050297
 C     1.419723     1.626173    -0.129181
 C     0.692691     0.477769    -0.101520
 C     1.105509    -1.577478    -1.558121
 C     1.647754    -0.794532    -2.570140
 C     1.897371    -1.324729    -3.829730
 C     1.604133    -2.649965    -4.101288
 C     1.051490    -3.441676    -3.103697
 C     0.802962    -2.908484    -1.851201
 C     1.763494    -1.582123     0.887499
 C     1.813212    -0.970300     2.142844
 C     2.666428    -1.425098     3.132205
 C     3.505979    -2.503259     2.889745
 C     3.482702    -3.109234     1.645467
 C     2.624405    -2.651260     0.654319
 C    -1.763192    -1.582087    -0.887954
 C    -1.812833    -0.969872    -2.143117
 C    -2.666165    -1.424211    -3.132583
 C    -3.505918    -2.502287    -2.890441
 C    -3.482709    -3.108643    -1.646366
 C    -2.624293    -2.651140    -0.655084
 C    -1.104975    -1.578344     1.557692
 C    -0.802274    -2.909453     1.850150
 C    -1.050392    -3.443149     3.102506
 C    -1.602790    -2.651866     4.100578
 C    -1.896208    -1.326551     3.829632
 C    -1.646969    -0.795834     2.570180
 H    -2.460645     4.116801     0.168713
 H    -1.242588     6.230475     0.082028
 H     1.240795     6.230847    -0.080950
 H     2.459471     4.117561    -0.167903
 H     1.873592     0.245836    -2.385442
 H     2.320813    -0.691620    -4.598571
 H     1.795838    -3.063132    -5.082840
 H     0.801938    -4.475384    -3.304157
 H     0.349232    -3.533056    -1.092886
 H     1.171143    -0.126171     2.353535
 H     2.676057    -0.931806     4.095249
 H     4.176689    -2.859297     3.660791
 H     4.142329    -3.940559     1.432333
 H     2.646513    -3.127578    -0.314428
 H    -1.170603    -0.125804    -2.353563
 H    -2.675732    -0.930634    -4.095483
 H    -4.176761    -2.857922    -3.661557
 H    -4.142461    -3.939931    -1.433472
 H    -2.646477    -3.127761     0.313511
 H    -0.348778    -3.533709     1.091435
 H    -0.800694    -4.476915     3.302483
 H    -1.794157    -3.065442     5.082024
 H    -2.319483    -0.693774     4.598837
 H    -1.872915     0.244599     2.385969
