   54
scf done: -1306.168573
 C     0.000182     0.641527     0.837861
 C    -0.000161     0.641337    -0.837150
 C     0.000297    -1.893577     0.670978
 C    -0.000063    -1.893960    -0.671862
 C    -1.218899    -0.022198     1.440932
 C    -2.284888     0.634148     2.027329
 H    -2.299420     1.715785     2.066981
 C    -3.340614    -0.101514     2.557952
 H    -4.171921     0.413619     3.021321
 C    -3.334454    -1.484752     2.493275
 H    -4.160073    -2.049330     2.906415
 C    -2.271107    -2.154038     1.894630
 H    -2.265420    -3.234164     1.830839
 C    -1.220980    -1.425354     1.374442
 C     1.219598    -0.022097     1.440451
 C     2.285504     0.634349     2.026864
 H     2.300019     1.715998     2.066370
 C     3.341287    -0.101201     2.557547
 H     4.172433     0.414021     3.021102
 C     3.335299    -1.484433     2.492833
 H     4.160954    -2.048926     2.906019
 C     2.272068    -2.153825     1.894091
 H     2.266570    -3.233946     1.830157
 C     1.221865    -1.425267     1.373910
 C    -1.219583    -0.022079    -1.439890
 C    -2.285794     0.634771    -2.025428
 H    -2.300362     1.716438    -2.064142
 C    -3.341561    -0.100437    -2.556551
 H    -4.173083     0.415056    -3.019135
 C    -3.335325    -1.483737    -2.493238
 H    -4.160787    -2.047928    -2.907204
 C    -2.271939    -2.153543    -1.895282
 H    -2.266323    -3.233720    -1.832279
 C    -1.221834    -1.425314    -1.374456
 C     1.219021    -0.022038    -1.440378
 C     2.284995     0.634944    -2.026196
 H     2.299364     1.716618    -2.064960
 C     3.340751    -0.100122    -2.557522
 H     4.172102     0.415458    -3.020292
 C     3.334676    -1.483424    -2.494166
 H     4.160220    -2.047547    -2.908091
 C     2.271434    -2.153350    -1.896089
 H     2.265878    -3.233538    -1.833313
 C     1.221339    -1.425289    -1.375018
 C     0.000063     2.140568     0.691349
 C    -0.000068     3.309107     1.428654
 H    -0.000019     3.321881     2.511047
 C    -0.000226     4.495682     0.696471
 H    -0.000247     5.443251     1.219742
 C    -0.000350     4.495513    -0.696826
 H    -0.000507     5.442928    -1.220375
 C    -0.000272     3.308685    -1.428584
 H    -0.000441     3.320977    -2.510973
 C    -0.000085     2.140432    -0.690804
