   74
scf done: -1243.462469
 C    -0.615472    -0.028979    -0.120971
 C    -0.959002    -1.528494    -0.411398
 C     1.027188     0.184851     0.175177
 C    -2.378522    -1.724602    -0.964483
 C     1.197878     1.313142     1.214844
 C    -1.686126     0.378603     0.994694
 C     1.818061     0.586499    -1.117308
 C    -1.738583     1.876162     1.343463
 C    -2.431103     0.577504    -1.856829
 C     2.740004    -1.719472    -1.541321
 C    -1.013356     0.865820    -1.342344
 C    -3.134746     0.122706     0.439491
 C    -1.560711    -0.505764     2.239163
 C     3.252536     1.052456    -0.782121
 C     3.333451    -0.568440     1.062413
 C    -0.956988     2.365405    -1.021731
 C    -3.387924    -1.338413     0.112887
 C     1.887305    -1.022030     0.720571
 C    -3.439883     0.977001    -0.784732
 C     4.053081    -0.115791    -0.210452
 C     2.628239     1.735370     1.506527
 C     1.935057    -0.561885    -2.125760
 C     4.148651    -1.241833    -1.225101
 C     2.086441    -2.198741    -0.248645
 C    -1.831911    -1.974661     1.908224
 C     3.375163     0.550461     2.084980
 C    -1.947316     2.726956     0.085574
 C     3.266152     2.204422     0.208785
 C    -2.593172    -0.888434    -2.212132
 C    -3.345667     2.455249    -0.449843
 C    -0.866892    -2.434699     0.825884
 C    -3.244177    -2.163464     1.379038
 H    -0.347193     0.657905    -2.178971
 H     2.776864    -2.542268    -2.260882
 H     2.603391     2.556732     2.229066
 H     2.905060     0.233068     3.021384
 H    -1.869900    -1.172155    -2.984154
 H     0.131464    -2.492761     1.238072
 H    -4.452416     0.740702    -1.131834
 H    -2.587068     1.191528    -2.751306
 H     0.952746    -0.910907    -2.447295
 H    -1.232100     2.917024    -1.927536
 H     4.650754    -0.889313    -2.131986
 H     4.746785    -2.066193    -0.824029
 H    -3.813172     0.414870     1.251540
 H    -2.602996     2.022584     2.001606
 H    -4.101318     2.719692     0.296533
 H     4.295020     2.538008     0.377513
 H     0.048928     2.696193    -0.774253
 H     1.340084     1.433784    -1.605882
 H     2.713743     3.061397    -0.190860
 H    -3.590224    -1.070200    -2.626301
 H    -0.286809    -1.895680    -1.184709
 H     2.436087    -0.188532    -3.025451
 H     1.460537    -1.372546     1.662583
 H     3.712838     1.375442    -1.723238
 H    -3.428097    -3.223552     1.177610
 H    -3.987175    -1.840692     2.115594
 H    -0.569724    -0.410703     2.689525
 H    -2.490855    -2.786695    -1.210808
 H     4.413535     0.808434     2.316790
 H     0.736492     1.003450     2.153492
 H    -1.687116    -2.579036     2.808410
 H    -3.542235     3.062557    -1.339317
 H     0.673359     2.200858     0.884942
 H     2.745669    -2.926238     0.237468
 H     1.172667    -2.736636    -0.471776
 H    -0.886533     2.214486     1.920934
 H    -1.843663     3.785853     0.339291
 H    -4.403979    -1.442127    -0.285248
 H     3.845944    -1.447486     1.469000
 H    -1.126697    -3.454053     0.518986
 H    -2.277371    -0.159527     2.992921
 H     5.058731     0.231296     0.053316
