   23
scf done:  -739.379156
 C     7.870073     5.688029     9.881280
 C     8.061036     6.962956    10.365324
 C     7.045676     7.897122    10.225048
 C     5.860899     7.526657     9.600604
 C     5.724463     6.240596     9.136411
 N     6.719699     5.350576     9.281983
 C     6.529270     3.993901     8.772334
 C     7.552222     2.858710     8.852676
 C     5.435278     3.011493     9.214033
 C     6.250704     3.611647     7.311740
 C     6.295751     2.313488     8.142079
 I     6.035700     0.366002     7.416197
 H     8.614976     4.910988     9.955265
 H     8.996314     7.211478    10.844425
 H     7.174207     8.903899    10.597746
 H     5.047363     8.225097     9.472436
 H     4.834355     5.882240     8.642041
 H     7.757317     2.442591     9.838118
 H     8.444614     2.948444     8.234692
 H     4.411169     3.243650     8.925506
 H     5.508520     2.618091    10.226095
 H     7.062009     3.761462     6.601995
 H     5.278184     3.881784     6.902874
