   28
scf done:  -442.334292
 B     0.377606     6.670066     5.287329
 H     0.843921     6.107547     6.221457
 B    -1.974013     7.585786     3.926572
 H    -3.149352     7.598864     3.770127
 B    -1.180970     6.170379     4.617052
 H    -1.817156     5.223562     4.942132
 B    -0.956959     8.113594     2.584457
 H    -1.364083     8.444521     1.521654
 B     0.317712     5.880923     3.712803
 H     0.660067     4.800603     3.371119
 B     0.555098     8.414740     4.982874
 H     1.161334     9.132902     5.706380
 B     1.399523     7.248100     3.969148
 H     2.559668     7.070085     3.828224
 B     0.609793     8.641591     3.223411
 H     1.229579     9.432175     2.595873
 B    -1.029800     7.750240     5.406161
 H    -1.569401     7.969531     6.439514
 B    -0.897934     8.968258     4.111696
 H    -1.322025    10.072617     4.197162
 C     0.448776     7.110847     2.570078
 C    -1.104726     6.486075     2.969824
 N     0.980722     6.758200     1.327734
 N    -1.640360     5.647092     1.981630
 H    -1.874496     4.738770     2.353277
 H    -2.449434     6.055488     1.538388
 H     0.775564     7.454887     0.627408
 H     0.614445     5.865056     1.023818
