   54
scf done:  -982.448799
 B     1.209813    -1.953483     0.000000
 B     0.785987    -2.911025     1.441122
 B    -0.967075    -3.063730     1.438181
 B    -1.535465    -2.195780     0.000000
 B     1.414673    -3.707449     0.000000
 B     0.030908    -4.409622     0.880131
 B    -1.449024    -3.963052     0.000000
 C    -0.200993    -1.663263     0.903370
 N    -0.352111    -0.421991     1.506269
 C     0.640923     0.023582     2.467256
 H     1.610622     0.038738     1.965495
 H     0.732802    -0.667708     3.311887
 C     0.307941     1.395388     2.985008
 C     0.502517     1.698104     4.328075
 H     0.866653     0.931281     5.001313
 C     0.233971     2.969598     4.812856
 H     0.390840     3.189474     5.860740
 C    -0.244546     3.951993     3.959137
 H    -0.460136     4.942904     4.336580
 C    -0.450266     3.655591     2.619138
 H    -0.825501     4.416895     1.947477
 C    -0.174114     2.386381     2.135731
 H    -0.334507     2.148227     1.093057
 H     2.050144    -1.121380     0.000000
 H    -2.438907    -4.616756     0.000000
 H     1.400468    -2.726176     2.436021
 H    -2.489792    -1.492385     0.000000
 H     2.498274    -4.189869     0.000000
 H    -1.598902    -2.952257     2.435468
 H     0.122291    -5.401743     1.524233
 H    -1.291396    -0.288463     1.848581
 B     0.785987    -2.911025    -1.441122
 B    -0.967075    -3.063730    -1.438181
 B     0.030908    -4.409622    -0.880131
 C    -0.200993    -1.663263    -0.903370
 N    -0.352111    -0.421991    -1.506269
 C     0.640923     0.023582    -2.467256
 H     1.610622     0.038738    -1.965495
 H     0.732802    -0.667708    -3.311887
 C     0.307941     1.395388    -2.985008
 C     0.502517     1.698104    -4.328075
 H     0.866653     0.931281    -5.001313
 C     0.233971     2.969598    -4.812856
 H     0.390840     3.189474    -5.860740
 C    -0.244546     3.951993    -3.959137
 H    -0.460136     4.942904    -4.336580
 C    -0.450266     3.655591    -2.619138
 H    -0.825501     4.416895    -1.947477
 C    -0.174114     2.386381    -2.135731
 H    -0.334507     2.148227    -1.093057
 H     1.400468    -2.726176    -2.436021
 H    -1.598902    -2.952257    -2.435468
 H     0.122291    -5.401743    -1.524233
 H    -1.291396    -0.288463    -1.848581
