   55
scf done: -1020.500918
 B    -2.245652    -0.032780    -1.446168
 H    -1.474342    -0.103400    -2.338283
 B    -3.034978     1.437458    -0.939597
 H    -2.861519     2.420742    -1.575336
 B    -2.958009     1.526298     0.834928
 H    -2.774663     2.569101     1.364660
 B    -2.151350     0.101354     1.465482
 H    -1.322489     0.122180     2.304903
 B    -3.025802    -1.336266     1.002612
 H    -2.865905    -2.329200     1.628152
 B    -3.072925    -1.420877    -0.775502
 H    -2.953412    -2.468058    -1.315438
 B    -3.977700    -0.004514    -1.377169
 H    -4.605615    -0.056947    -2.382055
 B    -3.879040     0.149397     1.498472
 H    -4.444196     0.227183     2.538377
 B    -4.469254    -0.811375     0.126107
 H    -5.475131    -1.436441     0.192750
 B    -4.437681     0.971091     0.026547
 H    -5.418786     1.637662     0.032619
 N    -0.338319     1.180767    -0.163811
 N    -0.379239    -1.175076     0.069829
 C    -1.702071     0.820482    -0.057831
 C    -1.737661    -0.772531     0.047518
 C     0.425108    -0.036511    -0.399416
 H     1.371607     0.007287     0.136886
 H     0.644546    -0.150267    -1.468319
 C    -0.063533    -2.428714    -0.581681
 H    -0.183400    -2.355079    -1.672438
 H    -0.782381    -3.170912    -0.229682
 C     1.334068    -2.879243    -0.251787
 C     1.786282    -2.864390     1.065170
 H     1.130019    -2.494158     1.842651
 C     3.061151    -3.309501     1.374089
 H     3.402201    -3.293299     2.401102
 C     3.899401    -3.778190     0.370804
 H     4.895035    -4.125916     0.613022
 C     3.456343    -3.794728    -0.942242
 H     4.105036    -4.153492    -1.730570
 C     2.180641    -3.342836    -1.250731
 H     1.840164    -3.351120    -2.279304
 C     0.202103     2.099072     0.822796
 H     0.351046     1.616450     1.796402
 H    -0.539131     2.885832     0.967583
 C     1.495439     2.709490     0.353977
 C     2.564704     2.844987     1.230948
 H     2.474064     2.476361     2.245891
 C     3.745375     3.447088     0.818622
 H     4.569954     3.545261     1.512497
 C     3.869262     3.912489    -0.480945
 H     4.790362     4.377858    -0.806373
 C     2.807425     3.774005    -1.365256
 H     2.899084     4.133607    -2.381921
 C     1.628084     3.177078    -0.950744
 H     0.799986     3.061724    -1.638208
