   66
scf done: -2158.149620
Cl    -1.994128     3.055229    -0.869664
Cl    -1.925448    -3.055085     0.911885
 C    -0.714808    -0.672462     0.208281
 C     0.804949    -0.697528     0.432523
 C     0.793535     0.730232    -0.448218
 C    -0.727061     0.684148    -0.217808
 C    -1.906430     1.366149    -0.380751
 C    -3.149613     0.678510    -0.175532
 C    -4.405049     1.322833    -0.332636
 C    -5.590109     0.640517    -0.154358
 C    -5.574949    -0.729430     0.187071
 C    -4.374747    -1.388032     0.349882
 C    -3.135211    -0.716920     0.181315
 C    -1.878227    -1.376950     0.382314
 C     1.605025    -1.834394    -0.167391
 C     0.991237    -2.895278    -0.842405
 C     1.736488    -3.945470    -1.384742
 C     3.125187    -3.964260    -1.254556
 C     3.755724    -2.916004    -0.577847
 C     3.004365    -1.869640    -0.046299
 C     1.047294    -0.610733     2.045109
 C    -0.068196     0.152650     2.793025
 C     1.032907    -2.052534     2.592109
 C     2.377761     0.007259     2.519918
 C     1.585865     1.878404     0.143617
 C     0.955278     2.968500     0.754865
 C     1.686544     4.023318     1.306540
 C     3.080288     4.017256     1.252427
 C     3.727692     2.939591     0.641875
 C     2.989212     1.889844     0.099989
 C     1.022106     0.607391    -2.061304
 C    -0.038978    -0.284901    -2.741571
 C     0.884669     2.018905    -2.668020
 C     2.385365     0.071670    -2.541547
 H    -4.419759     2.376662    -0.599103
 H    -6.540253     1.159871    -0.285440
 H    -6.512976    -1.269449     0.321605
 H    -4.364891    -2.441373     0.619876
 H    -0.087250    -2.910393    -0.952684
 H     1.221580    -4.750388    -1.911150
 H     3.711359    -4.782963    -1.674392
 H     4.840944    -2.906624    -0.467772
 H     3.524585    -1.049593     0.435601
 H    -1.046842    -0.327072     2.700877
 H     0.186348     0.175268     3.860382
 H    -0.157890     1.188862     2.458054
 H     1.901318    -2.625388     2.251121
 H     1.063872    -2.014694     3.689497
 H     0.130926    -2.594453     2.302784
 H     2.412165     1.090570     2.409893
 H     2.468227    -0.215747     3.591979
 H     3.257768    -0.426666     2.039460
 H    -0.126992     3.001538     0.808396
 H     1.157894     4.850315     1.782813
 H     3.654384     4.843764     1.673718
 H     4.817195     2.903779     0.603219
 H     3.522417     1.045976    -0.321169
 H    -0.014625    -1.313325    -2.372704
 H    -1.056132     0.100325    -2.625019
 H     0.177022    -0.316274    -3.817121
 H    -0.057976     2.495988    -2.397070
 H     1.699644     2.678869    -2.350647
 H     0.923735     1.939291    -3.762494
 H     2.398507     0.154391    -3.636660
 H     3.232856     0.656859    -2.177728
 H     2.546968    -0.976212    -2.291129
