   74
scf done: -1244.123908
 C    -0.619353    -0.030566    -0.122395
 C    -0.957966    -1.538866    -0.410921
 C     1.030002     0.186628     0.179435
 C    -2.385163    -1.736983    -0.967871
 C     1.195016     1.316195     1.228049
 C    -1.694409     0.383697     1.002637
 C     1.819572     0.594765    -1.122473
 C    -1.740212     1.889827     1.350042
 C    -2.438325     0.577633    -1.870171
 C     2.736296    -1.724788    -1.559496
 C    -1.013238     0.868501    -1.351483
 C    -3.153300     0.124491     0.442334
 C    -1.554572    -0.502072     2.253200
 C     3.263072     1.062550    -0.785639
 C     3.346907    -0.577511     1.067006
 C    -0.944017     2.375023    -1.025895
 C    -3.400795    -1.346773     0.117993
 C     1.891223    -1.032678     0.722407
 C    -3.453459     0.983053    -0.791520
 C     4.067345    -0.118343    -0.216667
 C     2.632939     1.739712     1.521238
 C     1.922474    -0.558024    -2.139649
 C     4.156267    -1.246646    -1.243676
 C     2.082138    -2.212131    -0.258652
 C    -1.828289    -1.981325     1.924461
 C     3.385486     0.544741     2.098916
 C    -1.945999     2.743603     0.082042
 C     3.272614     2.218091     0.215199
 C    -2.597173    -0.898035    -2.225036
 C    -3.353737     2.471189    -0.458651
 C    -0.857805    -2.445871     0.836013
 C    -3.251233    -2.172894     1.394401
 H    -0.344705     0.655211    -2.187456
 H     2.768310    -2.550151    -2.286010
 H     2.607802     2.562683     2.251147
 H     2.911284     0.220949     3.038031
 H    -1.865535    -1.183299    -2.996650
 H     0.144163    -2.495057     1.248022
 H    -4.471579     0.749395    -1.141023
 H    -2.594671     1.192556    -2.770187
 H     0.930870    -0.905411    -2.448201
 H    -1.201728     2.935028    -1.937736
 H     4.659638    -0.888836    -2.155149
 H     4.759056    -2.078049    -0.847588
 H    -3.836369     0.419150     1.254395
 H    -2.605411     2.042816     2.013317
 H    -4.114591     2.742128     0.288819
 H     4.305138     2.559368     0.384612
 H     0.066963     2.692234    -0.765139
 H     1.338853     1.447025    -1.604125
 H     2.712676     3.077692    -0.183947
 H    -3.596404    -1.084199    -2.647201
 H    -0.282158    -1.902329    -1.185673
 H     2.412332    -0.182216    -3.050769
 H     1.458748    -1.384416     1.664505
 H     3.724600     1.391602    -1.729980
 H    -3.437434    -3.239278     1.195474
 H    -3.997846    -1.847754     2.135288
 H    -0.553863    -0.401869     2.691175
 H    -2.498219    -2.804112    -1.214126
 H     4.428432     0.804065     2.337149
 H     0.731299     0.999137     2.166232
 H    -1.679461    -2.585720     2.831565
 H    -3.550175     3.079276    -1.354935
 H     0.668679     2.204988     0.897563
 H     2.740548    -2.949657     0.224863
 H     1.162251    -2.745179    -0.482659
 H    -0.883143     2.224739     1.928681
 H    -1.838410     3.808345     0.336863
 H    -4.422115    -1.457096    -0.279730
 H     3.862813    -1.460954     1.473141
 H    -1.110761    -3.472778     0.531184
 H    -2.264016    -0.152734     3.019398
 H     5.080301     0.225541     0.045786
