   23
FINAL HEAT OF FORMATION =  -739.669487
 C     7.914189     5.721389     9.810240
 C     8.101646     7.007623    10.291273
 C     7.045978     7.919206    10.230142
 C     5.823877     7.514654     9.684249
 C     5.689623     6.219112     9.219703
 N     6.723865     5.350585     9.289493
 C     6.532557     3.986237     8.772668
 C     7.531882     2.821315     8.914030
 C     5.382516     3.026884     9.161696
 C     6.320935     3.603013     7.286722
 C     6.291736     2.295361     8.131084
 I     6.020711     0.327873     7.394013
 H     8.687289     4.957863     9.829586
 H     9.068012     7.281247    10.710399
 H     7.171037     8.934740    10.606036
 H     4.974911     8.193112     9.619226
 H     4.769589     5.833485     8.786709
 H     7.679256     2.410413     9.918874
 H     8.464422     2.887570     8.342410
 H     4.375029     3.282706     8.815001
 H     5.389741     2.638815    10.185580
 H     7.177327     3.735399     6.617192
 H     5.373668     3.902296     6.824572
