   55
scf done: -1021.069129
 B    -2.288885    -0.031303    -1.466863
 H    -1.517411    -0.097531    -2.363181
 B    -3.086784     1.435076    -0.944282
 H    -2.928855     2.427280    -1.577230
 B    -2.998950     1.519211     0.841085
 H    -2.822840     2.565159     1.373644
 B    -2.184586     0.093212     1.476527
 H    -1.350604     0.124500     2.314999
 B    -3.044956    -1.355368     1.003088
 H    -2.878188    -2.354107     1.624301
 B    -3.094877    -1.435587    -0.785791
 H    -2.971377    -2.483372    -1.329896
 B    -4.023483    -0.020235    -1.381457
 H    -4.661125    -0.077035    -2.384209
 B    -3.915111     0.127691     1.506458
 H    -4.483286     0.198829     2.549307
 B    -4.501098    -0.840501     0.127296
 H    -5.504909    -1.474011     0.195402
 B    -4.485577     0.953485     0.032774
 H    -5.476320     1.610586     0.044569
 N    -0.376211     1.196760    -0.162460
 N    -0.398750    -1.170234     0.045212
 C    -1.740453     0.826794    -0.066133
 C    -1.761363    -0.777438     0.041171
 C     0.420747    -0.013677    -0.381538
 H     1.350936     0.036702     0.194466
 H     0.688447    -0.120902    -1.448043
 C    -0.058424    -2.430755    -0.593790
 H    -0.174600    -2.368352    -1.692393
 H    -0.770052    -3.186221    -0.235759
 C     1.354466    -2.848053    -0.252910
 C     1.799324    -2.808411     1.076285
 H     1.119741    -2.452646     1.851107
 C     3.095937    -3.206759     1.400150
 H     3.431238    -3.170470     2.437677
 C     3.964281    -3.655390     0.399062
 H     4.978684    -3.965800     0.652256
 C     3.527808    -3.697343    -0.926315
 H     4.200627    -4.040028    -1.713509
 C     2.229226    -3.293038    -1.249351
 H     1.892464    -3.320526    -2.286864
 C     0.146122     2.169773     0.791451
 H     0.234841     1.743064     1.805514
 H    -0.582037     2.988162     0.849214
 C     1.485298     2.708645     0.344609
 C     2.547142     2.814378     1.249173
 H     2.409861     2.481859     2.279401
 C     3.778477     3.336586     0.842867
 H     4.598615     3.411101     1.558142
 C     3.959416     3.754624    -0.476753
 H     4.920735     4.157924    -0.797237
 C     2.903109     3.647415    -1.387955
 H     3.038431     3.971214    -2.420903
 C     1.674322     3.129815    -0.979463
 H     0.850638     3.037535    -1.687580
