   50
scf done:  -980.567302
 B     5.738160     3.544716     3.605466
 B     4.201642     4.438232     3.622309
 B     3.592419     4.438550     5.287666
 B     5.743576     5.310983     3.590244
 B     4.410935     5.872357     4.642796
 C     4.441918     3.108597     4.654454
 C     2.724553     1.670853     4.027378
 H     2.069642     2.523741     3.789006
 N     3.911897     1.833917     4.460176
 C     2.155311     0.335897     3.819242
 C     0.842134     0.211988     3.339433
 H     0.260834     1.110909     3.127038
 C     0.282382    -1.049773     3.134691
 H    -0.738341    -1.139363     2.761826
 C     1.032668    -2.195539     3.408708
 H     0.597124    -3.182783     3.249321
 C     2.344541    -2.078483     3.888102
 H     2.927274    -2.975599     4.100900
 C     2.905636    -0.822739     4.093354
 H     3.922592    -0.708463     4.465374
 H     2.436806     4.274162     5.509991
 H     6.041639     2.757656     2.774799
 H     3.462118     4.273684     2.706890
 H     6.100189     5.891482     2.614704
 H     3.805602     6.871765     4.421370
 B     4.755351     3.544719     6.291720
 B     6.291868     4.438236     6.274875
 B     6.901091     4.438550     4.609517
 B     4.749933     5.310986     6.306937
 B     6.082573     5.872358     5.254383
 C     6.051593     3.108598     5.242732
 C     7.768960     1.670857     5.869809
 H     8.423871     2.523746     6.108176
 N     6.581614     1.833919     5.437014
 C     8.338202     0.335902     6.077948
 C     9.651381     0.211995     6.557755
 H    10.232681     1.110917     6.770145
 C    10.211133    -1.049765     6.762500
 H    11.231857    -1.139354     7.135363
 C     9.460847    -2.195533     6.488488
 H     9.896393    -3.182775     6.647877
 C     8.148974    -2.078479     6.009097
 H     7.566241    -2.975595     5.796304
 C     7.587878    -0.822735     5.803841
 H     6.570920    -0.708461     5.431824
 H     8.056704     4.274164     4.387192
 H     4.451872     2.757660     7.122387
 H     7.031391     4.273690     7.190294
 H     4.393320     5.891487     7.282475
 H     6.687905     6.871767     5.475808
