   66
scf done: -1529.819159
 C    -0.000663     4.162949     1.680548
 C    -0.000576     4.674713     0.414625
 C    -0.000401     4.171422    -2.064114
 H    -0.000816     4.831987     2.522739
 H    -0.000678     5.738860     0.257312
 H    -0.000517     5.213371    -2.331403
 C    -0.000318     1.890340     0.881257
 C    -0.000572     2.767877     1.928477
 C    -0.000403     3.796475    -0.695013
 C    -0.000277     3.210310    -3.031668
 C    -0.000132     1.825268    -2.718719
 C    -0.000108     1.444814    -1.414625
 C    -0.000244     2.424258    -0.414996
 C    -0.000119     0.343411     0.867804
 C    -1.273097    -0.189966     1.601727
 C    -2.237958     0.687364     2.104775
 C    -3.392097     0.258368     2.733574
 C    -3.646189    -1.092446     2.868232
 C    -2.724166    -1.981916     2.364221
 C    -1.541612    -1.560227     1.753654
 C    -0.660489    -2.637941     1.294594
 C     0.661082    -2.637736     1.294659
 C     1.541851    -1.559792     1.753859
 C     1.272942    -0.189587     1.602040
 C     0.000102     0.024127    -0.819220
 C    -1.355771    -0.592262    -1.289107
 C    -2.460901     0.263964    -1.159323
 C    -3.745417    -0.081623    -1.510098
 C    -3.993820    -1.337373    -2.037549
 C    -2.935699    -2.197056    -2.185296
 C    -1.618379    -1.859043    -1.827135
 C    -0.660134    -2.935888    -2.084145
 C     0.661001    -2.935665    -2.084353
 C     1.618970    -1.858551    -1.827429
 C     1.356095    -0.591950    -1.289102
 H    -0.000689     2.422882     2.946178
 H    -0.000281     3.502893    -4.066669
 H     0.000021     1.101566    -3.513254
 H    -2.119181     1.740894     1.986629
 H    -4.094680     0.987300     3.096438
 H    -4.543328    -1.444788     3.344578
 H    -2.905583    -3.038847     2.447567
 H    -1.160908    -3.540800     0.992002
 H     1.161822    -3.540434     0.992078
 H    -2.317606     1.245320    -0.759936
 H    -4.541919     0.626510    -1.369962
 H    -4.986041    -1.635206    -2.324991
 H    -3.111231    -3.174315    -2.597511
 H    -1.125066    -3.871257    -2.342346
 H     1.126184    -3.870893    -2.342629
 H     2.317654     1.245527    -0.759086
 C     2.724502    -1.981201     2.364416
 C     3.646237    -1.091501     2.868563
 C     3.391713     0.259244     2.734096
 C     2.237471     0.687975     2.105289
 C     2.936363    -2.196230    -2.185623
 C     3.994341    -1.336439    -2.037528
 C     3.745727    -0.080933    -1.509594
 C     2.461123     0.264357    -1.158856
 H     2.906227    -3.038087     2.447667
 H     4.543487    -1.443617     3.344869
 H     4.094057     0.988357     3.097061
 H     2.118380     1.741490     1.987324
 H     3.112067    -3.173334    -2.598151
 H     4.986632    -1.634048    -2.324963
 H     4.542130     0.627219    -1.369023
