  212
scf done: -3329.965575
 C     0.854213     0.001810     0.000001
 C    -0.854213    -0.001810    -0.000001
 C     1.480164     0.356637    -1.416657
 C    -1.480164    -0.356637     1.416657
 C    -1.468047     1.403003    -0.410745
 C     1.468047    -1.403003     0.410745
 C     1.477893     1.058320     1.010445
 C    -1.477893    -1.058320    -1.010445
 C     1.077602     1.153435     2.356920
 C    -1.077602    -1.153435    -2.356920
 C    -1.108929    -1.506862     2.138098
 C     1.108929     1.506862    -2.138098
 C     1.117324    -2.596262    -0.233817
 C    -1.117324     2.596262     0.233817
 C     2.571224     1.825103     0.639132
 C    -2.571224    -1.825103    -0.639132
 C    -2.556968     0.362080     1.913989
 C     2.556968    -0.362080    -1.913989
 C     2.499873    -1.486678     1.339699
 C    -2.499873     1.486678    -1.339699
 C     1.713264     1.982192     3.266315
 C    -1.713264    -1.982192    -3.266315
 C    -1.752406    -1.897150     3.300530
 C     1.752406     1.897150    -3.300530
 C     1.723881    -3.814003     0.051796
 C    -1.723881     3.814003    -0.051796
 C     3.262444     2.658920     1.530178
 C    -3.262444    -2.658920    -1.530178
 C    -3.253000    -0.006789     3.074978
 C     3.253000     0.006789    -3.074978
 C     3.162086    -2.680177     1.636391
 C    -3.162086     2.680177    -1.636391
 C     2.815474     2.726173     2.830622
 C    -2.815474    -2.726173    -2.830622
 C    -2.826441    -1.125323     3.755923
 C     2.826441     1.125323    -3.755923
 C     2.753448    -3.833004     0.990666
 C    -2.753448     3.833004    -0.990666
 H     0.263312     0.559194     2.695871
 H    -0.263312    -0.559194    -2.695871
 H    -0.320634    -2.115819     1.767018
 H     0.320634     2.115819    -1.767018
 H     0.366349    -2.576422    -0.987968
 H    -0.366349     2.576422     0.987968
 H     2.938015     1.772534    -0.359718
 H    -2.938015    -1.772534     0.359718
 H    -2.908635     1.218091     1.384806
 H     2.908635    -1.218091    -1.384806
 H     2.830127    -0.606340     1.841033
 H    -2.830127     0.606340    -1.841033
 C     1.280771     2.109700     4.741434
 C    -1.280771    -2.109700    -4.741434
 C    -1.357312    -3.152029     4.107140
 C     1.357312     3.152029    -4.107140
 C     1.301526    -5.097431    -0.696549
 C    -1.301526     5.097431     0.696549
 C     4.496995     3.437434     1.035965
 C    -4.496995    -3.437434    -1.035965
 C    -4.481632     0.811425     3.519208
 C     4.481632    -0.811425    -3.519208
 C     4.325535    -2.668198     2.647357
 C    -4.325535     2.668198    -2.647357
 H     3.320918     3.354918     3.533951
 H    -3.320918    -3.354918    -3.533951
 H    -3.331999    -1.426736     4.649709
 H     3.331999     1.426736    -4.649709
 H     3.239800    -4.757330     1.212863
 H    -3.239800     4.757330    -1.212863
 C     5.075536    -0.307651    -4.844122
 C    -5.075536     0.307651     4.844122
 C    -4.925817     4.064873    -2.872302
 C     4.925817    -4.064873     2.872302
 C     5.089400     4.350124     2.121149
 C    -5.089400    -4.350124    -2.121149
 C     5.578917    -0.709807    -2.441782
 C    -5.578917     0.709807     2.441782
 C    -5.449390     1.751686    -2.126014
 C     5.449390    -1.751686     2.126014
 C     5.592169     2.442143     0.607262
 C    -5.592169    -2.442143    -0.607262
 C     4.100149    -2.289693    -3.710336
 C    -4.100149     2.289693     3.710336
 C    -3.835170     2.143935    -4.009737
 C     3.835170    -2.143935     4.009737
 C     4.119678     4.323932    -0.165226
 C    -4.119678    -4.323932     0.165226
 C     0.892211     2.740399    -5.517881
 C    -0.892211    -2.740399     5.517881
 C    -1.845989     6.371434     0.027036
 C     1.845989    -6.371434    -0.027036
 C     0.980537     3.584608     5.075997
 C    -0.980537    -3.584608    -5.075997
 C     0.219231     3.940736    -3.449557
 C    -0.219231    -3.940736     3.449557
 C     0.230881     5.227673     0.744516
 C    -0.230881    -5.227673    -0.744516
 C     0.021533     1.293849     5.055383
 C    -0.021533    -1.293849    -5.055383
 C     2.567163     4.099172    -4.237446
 C    -2.567163    -4.099172     4.237446
 C    -1.845860     5.048512     2.135408
 C     1.845860    -5.048512    -2.135408
 C     2.412018     1.612409     5.662828
 C    -2.412018    -1.612409    -5.662828
 H     0.647078     3.621785    -6.104124
 H    -0.647078    -3.621785     6.104124
 H    -1.464642     7.243681     0.548351
 H     1.464642    -7.243681    -0.548351
 H     0.661791     3.674799     6.110623
 H    -0.661791    -3.674799    -6.110623
 H     1.655919     2.189659    -6.055781
 H    -1.655919    -2.189659     6.055781
 H    -2.928542     6.427195     0.063298
 H     2.928542    -6.427195    -0.063298
 H     1.848551     4.220966     4.946893
 H    -1.848551    -4.220966    -4.946893
 H     0.005729     2.117388    -5.468395
 H    -0.005729    -2.117388     5.468395
 H    -1.535708     6.444869    -1.010646
 H     1.535708    -6.444869     1.010646
 H     0.187678     3.974268     4.447518
 H    -0.187678    -3.974268    -4.447518
 H     2.286907     4.986825    -4.797570
 H    -2.286907    -4.986825     4.797570
 H    -1.535705     5.929598     2.691141
 H     1.535705    -5.929598    -2.691141
 H     2.121929     1.718439     6.704553
 H    -2.121929    -1.718439    -6.704553
 H     2.918736     4.418168    -3.262242
 H    -2.918736    -4.418168     3.262242
 H    -1.484545     4.174435     2.663926
 H     1.484545    -4.174435    -2.663926
 H     2.629020     0.565221     5.482940
 H    -2.629020    -0.565221    -5.482940
 H     3.399398     3.637304    -4.756161
 H    -3.399398    -3.637304     4.756161
 H    -2.930517     5.016189     2.139065
 H     2.930517    -5.016189    -2.139065
 H     3.330132     2.171472     5.519458
 H    -3.330132    -2.171472    -5.519458
 H    -0.022384     4.806891    -4.058600
 H     0.022384    -4.806891     4.058600
 H     0.507201     6.143439     1.259865
 H    -0.507201    -6.143439    -1.259865
 H    -0.250085     1.428164     6.098154
 H     0.250085    -1.428164    -6.098154
 H    -0.680337     3.347374    -3.348824
 H     0.680337    -3.347374     3.348824
 H     0.649238     5.270594    -0.255228
 H    -0.649238    -5.270594     0.255228
 H    -0.821619     1.604966     4.450552
 H     0.821619    -1.604966    -4.450552
 H     0.496361     4.298431    -2.465345
 H    -0.496361    -4.298431     2.465345
 H     0.701660     4.407336     1.268123
 H    -0.701660    -4.407336    -1.268123
 H     0.175544     0.234932     4.892103
 H    -0.175544    -0.234932    -4.892103
 H     5.925109    -0.925244    -5.117629
 H    -5.925109     0.925244     5.117629
 H    -5.733932     3.999477    -3.593923
 H     5.733932    -3.999477     3.593923
 H     5.944106     4.884075     1.718172
 H    -5.944106    -4.884075    -1.718172
 H     4.356832    -0.361891    -5.655722
 H    -4.356832     0.361891     5.655722
 H    -4.193264     4.762658    -3.265163
 H     4.193264    -4.762658     3.265163
 H     4.372658     5.090205     2.462702
 H    -4.372658    -5.090205    -2.462702
 H     5.429655     0.715301    -4.769694
 H    -5.429655    -0.715301     4.769694
 H    -5.338491     4.481965    -1.959362
 H     5.338491    -4.481965     1.959362
 H     5.435543     3.787553     2.982127
 H    -5.435543    -3.787553    -2.982127
 H     6.450971    -1.288665    -2.733907
 H    -6.450971     1.288665     2.733907
 H    -6.279677     1.734786    -2.826845
 H     6.279677    -1.734786     2.826845
 H     6.467784     2.974982     0.246315
 H    -6.467784    -2.974982    -0.246315
 H     5.892170     0.320332    -2.305129
 H    -5.892170    -0.320332     2.305129
 H    -5.824865     2.105541    -1.170786
 H     5.824865    -2.105541     1.170786
 H     5.899543     1.821516     1.443077
 H    -5.899543    -1.821516    -1.443077
 H     5.238848    -1.084878    -1.483323
 H    -5.238848     1.084878     1.483323
 H    -5.109115     0.731807    -1.992494
 H     5.109115    -0.731807     1.992494
 H     5.252740     1.787383    -0.186269
 H    -5.252740    -1.787383     0.186269
 H     4.967296    -2.863919    -4.024835
 H    -4.967296     2.863919     4.024835
 H    -4.655185     2.119208    -4.722189
 H     4.655185    -2.119208     4.722189
 H     4.991893     4.865926    -0.520270
 H    -4.991893    -4.865926     0.520270
 H     3.729262    -2.731641    -2.795297
 H    -3.729262     2.731641     2.795297
 H    -3.434829     1.140862    -3.933800
 H     3.434829    -1.140862     3.933800
 H     3.735940     3.741192    -0.993201
 H    -3.735940    -3.741192     0.993201
 H     3.333620    -2.399793    -4.470816
 H    -3.333620     2.399793     4.470816
 H    -3.058930     2.784741    -4.416016
 H     3.058930    -2.784741     4.416016
 H     3.363294     5.050809     0.111670
 H    -3.363294    -5.050809    -0.111670
