   66
scf done: -2149.276485
Cl    -1.919324     2.963782    -1.082580
Cl    -1.919316    -2.963785     1.082865
 C    -0.717830    -0.659533     0.251726
 C     0.810565    -0.720508     0.435572
 C     0.810473     0.720531    -0.435573
 C    -0.717880     0.659480    -0.251641
 C    -1.873055     1.329910    -0.467611
 C    -3.124047     0.671440    -0.223907
 C    -4.371651     1.315871    -0.435293
 C    -5.546917     0.668495    -0.220249
 C    -5.546884    -0.668906     0.219841
 C    -4.371582    -1.316138     0.435121
 C    -3.124016    -0.671554     0.223988
 C    -1.873007    -1.329934     0.467824
 C     1.542505    -1.899280    -0.221953
 C     0.861357    -2.892675    -0.913323
 C     1.525276    -3.962254    -1.500658
 C     2.898206    -4.069812    -1.407597
 C     3.599274    -3.087931    -0.723553
 C     2.931494    -2.025369    -0.147228
 C     1.128861    -0.678406     2.041763
 C     0.005565     0.012002     2.848805
 C     1.217541    -2.128317     2.576578
 C     2.434078     0.015414     2.500634
 C     1.542282     1.899419     0.221880
 C     0.861055     2.892389     0.913790
 C     1.524822     3.962004     1.501222
 C     2.897686     4.070054     1.407717
 C     3.598824     3.088668     0.723040
 C     2.931187     2.026070     0.146600
 C     1.128581     0.678332    -2.041795
 C     0.005162    -0.011988    -2.848765
 C     1.217244     2.128262    -2.576558
 C     2.433628    -0.015663    -2.500913
 H    -4.384614     2.331490    -0.772629
 H    -6.478001     1.178637    -0.387699
 H    -6.477941    -1.179170     0.387068
 H    -4.384478    -2.331765     0.772443
 H    -0.202794    -2.847729    -1.011956
 H     0.957231    -4.708205    -2.027288
 H     3.415380    -4.897667    -1.858255
 H     4.670449    -3.144684    -0.644515
 H     3.514711    -1.276869     0.346111
 H    -0.914651    -0.556067     2.852493
 H     0.331301     0.099403     3.880465
 H    -0.211514     1.010433     2.497617
 H     2.151286    -2.605099     2.311209
 H     1.163846    -2.098389     3.660665
 H     0.414463    -2.757212     2.228021
 H     2.344827     1.088419     2.535226
 H     2.639115    -0.319833     3.513055
 H     3.303889    -0.229794     1.912112
 H    -0.203045     2.847090     1.012777
 H     0.956701     4.707597     2.028277
 H     3.414743     4.897924     1.858480
 H     4.669944     3.145836     0.643563
 H     3.514474     1.278052    -0.347373
 H    -0.211801    -1.010500    -2.497707
 H    -0.915090     0.556030    -2.852223
 H     0.330737    -0.099205    -3.880488
 H     0.414458     2.757246    -2.227494
 H     2.151203     2.604883    -2.311673
 H     1.162939     2.098467    -3.660621
 H     2.638729     0.319883    -3.513216
 H     3.303542     0.229044    -1.912332
 H     2.344065    -1.088634    -2.535872
