   66
scf done: -1132.926181
 N     1.329352    -0.274255     0.767217
 C     2.622744    -0.734664     0.324801
 C     0.790649     0.982768     0.432172
 C     2.720313    -1.582875    -0.775970
 C     3.980801    -2.017078    -1.187357
 H     4.043337    -2.659921    -2.048674
 C     3.779652    -0.419320     1.062094
 C     5.004969    -0.889297     0.628236
 H     5.885379    -0.642499     1.196168
 C     5.132658    -1.672771    -0.513837
 C     1.527105    -2.109997    -1.538437
 H     0.605218    -1.927822    -1.013592
 H     1.634230    -3.179569    -1.687194
 H     1.459767    -1.654869    -2.522422
 B     0.667295     1.402336    -1.224096
 H     1.091608     0.654861    -2.022647
 B     0.838601     2.332867     1.475900
 H     1.389051     2.185958     2.505758
 C     6.491858    -2.139197    -0.977290
 H     7.052276    -2.585557    -0.162017
 H     7.076845    -1.306683    -1.357585
 H     6.408146    -2.874494    -1.768881
 C     3.738559     0.395819     2.335150
 H     3.598733     1.449779     2.132586
 H     4.670296     0.284325     2.875610
 H     2.940305     0.083252     2.999504
 B     1.699600     2.321041    -0.074709
 H     2.865166     2.181128    -0.150665
 B     0.703924     3.182204    -1.269928
 H     1.205339     3.751401    -2.176962
 B     0.776430     3.766140     0.429683
 H     1.340774     4.758497     0.738534
 H     1.143381    -0.502462     1.719710
 N    -1.329285    -0.274362    -0.767084
 C    -2.622715    -0.734695    -0.324701
 C    -0.790600     0.982701    -0.432159
 C    -2.720424    -1.582667     0.776246
 C    -3.980966    -2.016755     1.187586
 H    -4.043614    -2.659402     2.049041
 C    -3.779529    -0.419510    -1.062205
 C    -5.004904    -0.889379    -0.628391
 H    -5.885239    -0.642720    -1.196498
 C    -5.132739    -1.672587     0.513849
 C    -1.527321    -2.109631     1.538983
 H    -0.605363    -1.927559     1.014231
 H    -1.634463    -3.179173     1.687941
 H    -1.460126    -1.654304     2.522887
 B    -0.667253     1.402455     1.224065
 H    -1.091551     0.655054     2.022696
 B    -0.838577     2.332686    -1.476034
 H    -1.389027     2.185647    -2.505875
 C    -6.491999    -2.138882     0.977255
 H    -7.052439    -2.585178     0.161963
 H    -7.076911    -1.306311     1.357541
 H    -6.408384    -2.874192     1.768844
 C    -3.738254     0.395276    -2.335481
 H    -3.598444     1.449291    -2.133190
 H    -4.669915     0.283640    -2.876042
 H    -2.939907     0.082517    -2.999632
 B    -1.699575     2.321014     0.074578
 H    -2.865137     2.181088     0.150554
 B    -0.703918     3.182329     1.269700
 H    -1.205346     3.751616     2.176671
 B    -0.776435     3.766077    -0.429975
 H    -1.340801     4.758388    -0.738934
 H    -1.143266    -0.502691    -1.719538
