   62
scf done: -6521.386990
Br     1.756037     3.297859    -0.376803
Br     1.755338    -3.298199     0.376864
 C    -0.866861     0.821895    -0.189833
 C    -0.867046    -0.821665     0.189834
 C     0.655226    -0.689912     0.128669
 C     1.799095    -1.405277     0.187617
 C     3.048263    -0.707716     0.081254
 C     4.297418    -1.378717     0.152627
 C     5.472250    -0.700665     0.076413
 C     5.472392     0.699521    -0.076810
 C     4.297694     1.377821    -0.152896
 C     3.048410     0.707086    -0.081400
 C     1.799389     1.404922    -0.187625
 C     0.655377     0.689793    -0.128600
 C    -1.441355     1.109704    -1.579830
 C    -2.773886     0.799678    -1.858129
 C    -3.329610     1.053723    -3.095855
 C    -2.561928     1.623762    -4.101973
 C    -1.240343     1.928393    -3.847041
 C    -0.686903     1.671970    -2.598111
 C    -1.392671     1.805383     0.878288
 C    -0.766050     1.875078     2.125520
 C    -1.188708     2.756585     3.100188
 C    -2.253244     3.611270     2.856990
 C    -2.873961     3.571209     1.625109
 C    -2.445385     2.683337     0.646495
 C    -1.393107    -1.805038    -0.878273
 C    -0.766409    -1.875165    -2.125403
 C    -1.189420    -2.756576    -3.100051
 C    -2.254377    -3.610683    -2.856886
 C    -2.875216    -3.570196    -1.625044
 C    -2.446307    -2.682463    -0.646494
 C    -1.441572    -1.109409     1.579814
 C    -0.687202    -1.672105     2.597947
 C    -1.240601    -1.928507     3.846875
 C    -2.562073    -1.623431     4.101986
 C    -3.329639    -1.052979     3.096039
 C    -2.773939    -0.798945     1.858278
 H     4.308894    -2.442626     0.272011
 H     6.403465    -1.234121     0.134535
 H     6.403715     1.232777    -0.135018
 H     4.309385     2.441729    -0.272267
 H    -3.385115     0.343750    -1.102649
 H    -4.358133     0.798903    -3.278610
 H    -2.990861     1.819713    -5.068238
 H    -0.627486     2.366203    -4.614580
 H     0.343579     1.913871    -2.438677
 H     0.062869     1.232185     2.347028
 H    -0.683267     2.777306     4.048966
 H    -2.582889     4.300766     3.613464
 H    -3.691013     4.236206     1.408318
 H    -2.939867     2.703276    -0.302204
 H     0.062842    -1.232708    -2.346928
 H    -0.683877    -2.777614    -4.048768
 H    -2.584299    -4.300098    -3.613310
 H    -3.692614    -4.234781    -1.408292
 H    -2.940889    -2.702029     0.302161
 H     0.343166    -1.914362     2.438342
 H    -0.627833    -2.366660     4.614291
 H    -2.990972    -1.819381     5.068266
 H    -4.358049    -0.797800     3.278920
 H    -3.385086    -0.342667     1.102944
