   54
scf done: -1299.096823
 C     0.000151     0.652795     0.837132
 C    -0.000145     0.653205    -0.836044
 C     0.000149    -1.887257     0.664675
 C    -0.000121    -1.887096    -0.666188
 C    -1.224367    -0.018979     1.461620
 C    -2.277629     0.625185     2.073840
 H    -2.305882     1.698039     2.123833
 C    -3.318287    -0.119971     2.627022
 H    -4.135555     0.386815     3.108385
 C    -3.305692    -1.497651     2.559354
 H    -4.112007    -2.065612     2.987848
 C    -2.250208    -2.157847     1.932886
 H    -2.240381    -3.231069     1.868625
 C    -1.222959    -1.422342     1.391092
 C     1.224883    -0.019009     1.461210
 C     2.278164     0.625174     2.073386
 H     2.306356     1.698032     2.123432
 C     3.318760    -0.119975     2.626671
 H     4.135968     0.386803     3.108141
 C     3.306320    -1.497657     2.558760
 H     4.112652    -2.065605     2.987238
 C     2.250959    -2.157842     1.932104
 H     2.241195    -3.231059     1.867715
 C     1.223549    -1.422345     1.390580
 C    -1.224955    -0.018028    -1.460573
 C    -2.278332     0.626752    -2.071941
 H    -2.306532     1.699646    -2.120932
 C    -3.318785    -0.117830    -2.626304
 H    -4.136063     0.389455    -3.107122
 C    -3.306097    -1.495576    -2.560333
 H    -4.112253    -2.063080    -2.989724
 C    -2.250853    -2.156395    -1.934132
 H    -2.241030    -3.229688    -1.871011
 C    -1.223534    -1.421476    -1.391708
 C     1.224415    -0.018033    -1.461036
 C     2.277584     0.626815    -2.072756
 H     2.305666     1.699712    -2.121812
 C     3.318066    -0.117690    -2.627084
 H     4.135244     0.389611    -3.108043
 C     3.305602    -1.495446    -2.560798
 H     4.111815    -2.062907    -2.990154
 C     2.250330    -2.156315    -1.934724
 H     2.240555    -3.229607    -1.871596
 C     1.223045    -1.421458    -1.392117
 C     0.000160     2.162100     0.688857
 C     0.000196     3.330567     1.425044
 H     0.000366     3.343023     2.500310
 C     0.000124     4.517146     0.697250
 H     0.000221     5.458002     1.218300
 C    -0.000148     4.517449    -0.695101
 H    -0.000213     5.458490    -1.215821
 C    -0.000234     3.331115    -1.423222
 H    -0.000383     3.343869    -2.498481
 C    -0.000066     2.162434    -0.687280
