   74
scf done: -1236.248512
 C    -0.627776    -0.030034    -0.122060
 C    -0.976994    -1.540659    -0.412425
 C     1.046656     0.185504     0.176494
 C    -2.404260    -1.734937    -0.969945
 C     1.219770     1.319101     1.226222
 C    -1.712550     0.381316     1.001803
 C     1.846599     0.592150    -1.124667
 C    -1.762817     1.889218     1.350070
 C    -2.455503     0.579967    -1.869456
 C     2.782407    -1.725349    -1.553320
 C    -1.030209     0.872870    -1.352101
 C    -3.169373     0.122934     0.437905
 C    -1.591453    -0.508909     2.255093
 C     3.289191     1.061004    -0.781360
 C     3.370342    -0.572617     1.069003
 C    -0.979392     2.382110    -1.027242
 C    -3.421148    -1.346046     0.110010
 C     1.916758    -1.032138     0.722766
 C    -3.472084     0.980596    -0.794712
 C     4.095009    -0.113478    -0.208498
 C     2.657759     1.741456     1.520129
 C     1.971784    -0.562377    -2.140331
 C     4.195761    -1.243916    -1.230301
 C     2.120317    -2.211604    -0.258524
 C    -1.862655    -1.985932     1.919558
 C     3.408368     0.550370     2.099332
 C    -1.977812     2.742372     0.083952
 C     3.300844     2.216335     0.218595
 C    -2.617070    -0.894261    -2.224485
 C    -3.381230     2.466690    -0.455535
 C    -0.888508    -2.448924     0.836346
 C    -3.279652    -2.175923     1.383365
 H    -0.370271     0.675534    -2.183137
 H     2.822065    -2.541503    -2.270821
 H     2.632000     2.556220     2.240636
 H     2.941532     0.232204     3.029487
 H    -1.898447    -1.177431    -2.991600
 H     0.099130    -2.504000     1.249462
 H    -4.478094     0.750756    -1.141792
 H    -2.610681     1.183637    -2.762147
 H     1.000501    -0.913502    -2.464063
 H    -1.249558     2.930591    -1.927812
 H     4.698489    -0.892581    -2.129263
 H     4.791963    -2.062314    -0.832133
 H    -3.849383     0.412330     1.237293
 H    -2.613769     2.041635     2.010862
 H    -4.135663     2.727306     0.283659
 H     4.323051     2.548654     0.388148
 H     0.015041     2.714359    -0.776750
 H     1.376168     1.429863    -1.614907
 H     2.754439     3.070403    -0.177137
 H    -3.606760    -1.075950    -2.639186
 H    -0.312103    -1.913302    -1.174718
 H     2.469609    -0.187709    -3.032906
 H     1.495423    -1.390806     1.652516
 H     3.748125     1.390572    -1.712086
 H    -3.462922    -3.229474     1.182449
 H    -4.021632    -1.858164     2.113276
 H    -0.610612    -0.417705     2.708786
 H    -2.517581    -2.788311    -1.220262
 H     4.439495     0.807126     2.334008
 H     0.765292     1.011458     2.158210
 H    -1.721395    -2.586288     2.815394
 H    -3.578260     3.071959    -1.338051
 H     0.703926     2.202268     0.903561
 H     2.768996    -2.939934     0.224131
 H     1.214455    -2.741497    -0.487877
 H    -0.911330     2.227231     1.912110
 H    -1.876539     3.795234     0.336822
 H    -4.430553    -1.454332    -0.283530
 H     3.881354    -1.442183     1.477012
 H    -1.140927    -3.463679     0.533422
 H    -2.306188    -0.168554     3.002619
 H     5.095145     0.228539     0.052249
