   23
scf done:  -735.895523
 C     7.868026     5.701433     9.885010
 C     8.061563     6.972715    10.369589
 C     7.044810     7.903847    10.228189
 C     5.859982     7.533022     9.603437
 C     5.731100     6.249183     9.142578
 N     6.723037     5.358556     9.286146
 C     6.529929     3.993405     8.772095
 C     7.550988     2.846713     8.846992
 C     5.435412     3.003695     9.212043
 C     6.250545     3.605145     7.308458
 C     6.292883     2.302393     8.136307
 I     6.026508     0.342293     7.402912
 H     8.613920     4.938091     9.963386
 H     8.989761     7.220457    10.845510
 H     7.170932     8.903911    10.598195
 H     5.051377     8.225354     9.475769
 H     4.845584     5.898963     8.652559
 H     7.761422     2.434922     9.824846
 H     8.440725     2.936211     8.238376
 H     4.416015     3.234601     8.933849
 H     5.504105     2.612504    10.217372
 H     7.053063     3.755420     6.600068
 H     5.288113     3.878065     6.897214
