   72
scf done: -1211.006618
 N     1.512355     0.723394     0.300147
 N    -1.387507     0.912525     0.059746
 C     3.075866    -3.438855     0.441826
 H     2.610820    -4.369434     0.719570
 C     2.279569    -2.399691    -0.013124
 C    -3.331318    -0.517157    -0.302520
 C     2.875644    -1.183775    -0.373682
 C     0.989478     2.019722     0.148153
 C     2.019327    -0.027259    -0.853050
 H     2.590673     0.610430    -1.515856
 H     1.174598    -0.392374    -1.417057
 C     4.453898    -3.311338     0.551353
 B    -1.151037     3.499474    -0.824870
 C    -0.710732     2.151075     0.099539
 B     0.260481     2.506366    -1.302491
 C    -4.612454    -2.076080     1.010235
 H    -5.197735    -2.283405     1.889121
 C     4.260831    -1.036363    -0.263141
 C    -3.103421    -1.527336    -1.247442
 C     5.026578    -2.102485     0.197117
 H     6.092506    -1.980371     0.280298
 C    -2.739324     0.863428    -0.505614
 H    -2.672263     1.092650    -1.558076
 H    -3.383020     1.615698    -0.064254
 B     1.732722     3.317269    -0.712138
 B     0.091895     2.547681     1.543181
 C    -4.093672    -0.796701     0.833019
 B     0.381648     4.272891    -1.340560
 C    -3.636778    -2.788231    -1.037371
 H    -3.457662    -3.559762    -1.766864
 C    -4.396590    -3.083391     0.087638
 B    -1.240011     3.553519     0.951780
 B     1.633374     3.304394     1.060959
 C     5.297793    -4.469010     1.030455
 H     5.382997    -5.231068     0.260643
 H     4.860310    -4.937888     1.905792
 H     6.299975    -4.147022     1.288478
 C     0.785422    -2.614033    -0.123264
 H     0.491143    -3.518924     0.394476
 H     0.481678    -2.720061    -1.161276
 H     0.226006    -1.788180     0.296240
 B    -0.536516     4.921247     0.068910
 C    -2.301542    -1.267760    -2.504618
 H    -2.102978    -2.195065    -3.028331
 H    -1.351961    -0.796684    -2.282569
 H    -2.839446    -0.616625    -3.188378
 B     1.241653     4.791325     0.151998
 C    -4.391723     0.257241     1.881161
 H    -4.878843    -0.188912     2.739277
 H    -5.052708     1.026996     1.493891
 H    -3.494839     0.752831     2.237484
 B     0.247477     4.309468     1.568553
 C    -4.974080    -4.465707     0.281792
 H    -4.205638    -5.227257     0.192647
 H    -5.731925    -4.678970    -0.466599
 H    -5.434077    -4.567988     1.257660
 C     4.964958     0.252684    -0.636814
 H     6.012934     0.202981    -0.368507
 H     4.539622     1.114377    -0.133554
 H     4.910212     0.442181    -1.704777
 H     0.209040     1.742333    -2.192014
 H    -2.281858     3.476189     1.500540
 H     0.008146     1.774626     2.427351
 H     1.957530     5.731945     0.181484
 H    -2.126146     3.443113    -1.481503
 H     2.591019     3.058712     1.707360
 H    -1.101780     5.958466     0.016329
 H     0.450478     4.844514    -2.373186
 H     2.753408     3.083792    -1.254332
 H     0.260862     4.894002     2.596186
 H     2.138737     0.684379     1.075703
 H    -1.338560     0.446303     0.940854
