   55
scf done: -1014.649242
 B    -2.236750     0.053190    -1.470403
 H    -1.462337     0.049804    -2.353260
 B    -3.034242     1.496047    -0.858655
 H    -2.861512     2.519103    -1.418243
 B    -2.975756     1.465265     0.937269
 H    -2.801373     2.468716     1.529163
 B    -2.161667    -0.006685     1.482556
 H    -1.343457    -0.037345     2.322662
 B    -3.029782    -1.425055     0.906200
 H    -2.868880    -2.455001     1.457599
 B    -3.068361    -1.391076    -0.892456
 H    -2.945325    -2.398198    -1.491968
 B    -3.979748     0.072650    -1.409574
 H    -4.603549     0.087876    -2.413481
 B    -3.901379     0.030372     1.505057
 H    -4.477005     0.033722     2.537476
 B    -4.483434    -0.845367     0.049674
 H    -5.485915    -1.471657     0.066115
 B    -4.456850     0.959547     0.070735
 H    -5.439027     1.616080     0.112944
 N    -0.334445     1.184595    -0.091094
 N    -0.368065    -1.184673     0.007314
 C    -1.702530     0.807695    -0.003232
 C    -1.731688    -0.777676    -0.009495
 C     0.464596    -0.018911    -0.325486
 H     1.349725    -0.007074     0.292345
 H     0.777868    -0.062952    -1.364686
 C    -0.023673    -2.413135    -0.691690
 H    -0.086895    -2.285701    -1.771981
 H    -0.753439    -3.162387    -0.413303
 C     1.361573    -2.898703    -0.315598
 C     1.697870    -3.103385     1.020382
 H     0.975050    -2.885773     1.785988
 C     2.949999    -3.577112     1.364657
 H     3.196864    -3.732060     2.399720
 C     3.886978    -3.855985     0.378159
 H     4.860400    -4.224827     0.647145
 C     3.561515    -3.655849    -0.950353
 H     4.280922    -3.866895    -1.721025
 C     2.303850    -3.177116    -1.293436
 H     2.060458    -3.022363    -2.330174
 C     0.188355     2.146271     0.871622
 H     0.335874     1.697255     1.851494
 H    -0.553565     2.924898     0.983556
 C     1.486756     2.765327     0.394293
 C     2.586847     2.829067     1.236037
 H     2.529274     2.406270     2.224046
 C     3.765261     3.433323     0.818815
 H     4.609154     3.473608     1.483878
 C     3.853063     3.976174    -0.449680
 H     4.764927     4.442411    -0.776939
 C     2.757343     3.914024    -1.300337
 H     2.819184     4.334629    -2.288052
 C     1.584077     3.314217    -0.881759
 H     0.738841     3.264617    -1.543980
