   54
scf done:  -976.794754
 B     1.285568    -1.954932     0.000000
 B     0.819342    -2.905599     1.449939
 B    -0.950423    -3.023294     1.447313
 B    -1.521209    -2.150626     0.000000
 B     1.443966    -3.723356     0.000000
 B     0.027494    -4.401929     0.889592
 B    -1.460538    -3.928236     0.000000
 C    -0.149277    -1.629564     0.875519
 N    -0.276810    -0.370478     1.486428
 C     0.628831    -0.006769     2.572959
 H     1.641811    -0.026332     2.191152
 H     0.581378    -0.714701     3.394884
 C     0.294541     1.375495     3.089968
 C    -0.046761     1.566671     4.420501
 H    -0.084961     0.723999     5.088545
 C    -0.339221     2.835441     4.902845
 H    -0.601311     2.966160     5.937388
 C    -0.295623     3.925604     4.053609
 H    -0.522409     4.909245     4.423803
 C     0.041833     3.743709     2.719022
 H     0.077643     4.588012     2.053957
 C     0.333899     2.479376     2.242752
 H     0.590290     2.338022     1.209185
 H     2.127718    -1.135075     0.000000
 H    -2.455787    -4.566240     0.000000
 H     1.424471    -2.735237     2.445199
 H    -2.454374    -1.429866     0.000000
 H     2.510283    -4.233694     0.000000
 H    -1.568343    -2.891285     2.444582
 H     0.100651    -5.392373     1.531130
 H    -1.226337    -0.182517     1.731888
 B     0.819342    -2.905599    -1.449939
 B    -0.950423    -3.023294    -1.447313
 B     0.027494    -4.401929    -0.889592
 C    -0.149277    -1.629564    -0.875519
 N    -0.276810    -0.370478    -1.486428
 C     0.628831    -0.006769    -2.572959
 H     1.641811    -0.026332    -2.191152
 H     0.581378    -0.714701    -3.394884
 C     0.294541     1.375495    -3.089968
 C    -0.046761     1.566671    -4.420501
 H    -0.084961     0.723999    -5.088545
 C    -0.339221     2.835441    -4.902845
 H    -0.601311     2.966160    -5.937388
 C    -0.295623     3.925604    -4.053609
 H    -0.522409     4.909245    -4.423803
 C     0.041833     3.743709    -2.719022
 H     0.077643     4.588012    -2.053957
 C     0.333899     2.479376    -2.242752
 H     0.590290     2.338022    -1.209185
 H     1.424471    -2.735237    -2.445199
 H    -1.568343    -2.891285    -2.444582
 H     0.100651    -5.392373    -1.531130
 H    -1.226337    -0.182517    -1.731888
