   68
FINAL HEAT OF FORMATION = -1607.173778
 C     9.139624    11.482528    15.359809
 C     8.161710    12.430129    15.671136
 C     7.050291    12.119918    16.530321
 C     6.917010    10.850434    17.082261
 C     7.921004     9.919026    16.747272
 C     7.726748     8.653592    17.339489
 C     8.680571     7.682496    17.053545
 C     9.795418     7.984834    16.194551
 C     9.946894     9.243802    15.633460
 C     8.979392    10.212102    15.930069
 C     5.998983    10.091695    17.975844
 C     6.471726     8.811042    18.125365
 C    10.423481    11.505973    14.490890
 C    11.421771    12.556649    15.036196
 C    11.100811    13.337486    16.160529
 C    11.998701    14.240388    16.723841
 C    13.279537    14.373537    16.188348
 C    13.626068    13.607966    15.084714
 C    12.714918    12.717829    14.478622
 C    13.196290    12.018587    13.292249
 C    12.480618    11.631717    12.223661
 C    11.051977    11.819154    11.995713
 C    10.658513    12.004653    10.653806
 C     9.338040    12.244433    10.303138
 C     8.371473    12.281277    11.307834
 C     8.738296    12.061403    12.632909
 C    10.070028    11.826393    13.017814
 C    11.018924     9.846008    14.692644
 C    12.328684     9.845729    15.521237
 C    12.172079    10.332468    16.836259
 C    13.222512    10.444779    17.737768
 C    14.503514    10.048262    17.352986
 C    14.686727     9.550791    16.074788
 C    13.628351     9.433068    15.136816
 C    14.035316     8.869757    13.856476
 C    13.316693     8.483466    12.791446
 C    11.880594     8.493433    12.546704
 C    11.497720     7.835832    11.348893
 C    10.179159     7.722924    10.944459
 C     9.183711     8.273462    11.752057
 C     9.537263     8.916270    12.931269
 C    10.872392     9.063003    13.363029
 H     8.223813    13.433092    15.264609
 H     6.327700    12.903656    16.730267
 H     8.610030     6.682042    17.466230
 H    10.519863     7.205246    15.992602
 H     5.104503    10.489300    18.431750
 H    10.136219    13.215524    16.627280
 H    11.702797    14.816973    17.592752
 H    13.995445    15.058339    16.627398
 H    14.617726    13.696552    14.654263
 H    14.272638    11.877530    13.252731
 H    13.022436    11.201757    11.386091
 H    11.424813    11.971365     9.886864
 H     9.064850    12.395050     9.265387
 H     7.329866    12.455230    11.063284
 H     7.963075    12.041853    13.382462
 H    11.188918    10.638129    17.160536
 H    13.039011    10.840885    18.729265
 H    15.339202    10.123881    18.038555
 H    15.674427     9.227671    15.763582
 H    15.109635     8.715381    13.781559
 H    13.885856     8.057702    11.967811
 H    12.282991     7.403692    10.737826
 H     9.928994     7.214439    10.020907
 H     8.140139     8.207235    11.468810
 H     8.748199     9.326559    13.543044
 H     6.008873     8.036483    18.718828
