   66
FINAL HEAT OF FORMATION = -1531.415966
 C     8.121915    12.081809    17.248839
 C     7.953563    11.479167    18.481342
 C     7.446276    11.800969    20.949130
 H     8.354777    11.471734    16.383388
 H     8.052710    10.404349    18.586350
 H     7.524405    10.739493    21.156665
 C     7.702765    14.290970    18.160472
 C     7.999348    13.487921    17.073385
 C     7.648024    12.271191    19.621183
 C     7.153164    12.694034    21.962993
 C     7.042941    14.092672    21.726508
 C     7.233865    14.570442    20.451358
 C     7.532294    13.671332    19.414070
 C     7.514974    15.823445    18.254970
 C     6.338593    16.273609    17.345724
 C     5.609665    15.337949    16.590393
 C     4.503771    15.694019    15.822669
 C     4.064032    17.017104    15.807155
 C     4.756363    17.959274    16.553248
 C     5.901344    17.621457    17.304973
 C     6.555766    18.724826    17.999410
 C     7.866666    18.869642    18.250314
 C     8.946195    17.957949    17.887881
 C     8.819148    16.547668    17.821452
 C     7.168834    16.028135    19.940030
 C     5.689039    16.453993    20.145513
 C     4.753106    15.491948    19.710751
 C     3.378927    15.682324    19.770800
 C     2.872186    16.869751    20.299759
 C     3.763895    17.826222    20.751432
 C     5.171639    17.653817    20.692770
 C     5.924377    18.776298    21.236727
 C     7.233870    18.923944    21.486927
 C     8.354989    18.012229    21.302196
 C     8.342828    16.752070    20.655003
 H     8.140247    13.914643    16.087468
 H     7.001389    12.324744    22.970883
 H     6.811798    14.764632    22.543628
 H     5.891847    14.298021    16.626217
 H     3.975774    14.931919    15.260995
 H     3.194098    17.305974    15.229234
 H     4.428944    18.993344    16.557592
 H     5.900097    19.549921    18.262607
 H     8.191401    19.803040    18.701197
 H     5.120400    14.561123    19.306147
 H     2.713244    14.909833    19.404962
 H     1.804024    17.041476    20.360080
 H     3.386676    18.750419    21.176099
 H     5.293765    19.619846    21.509372
 H     7.524809    19.871443    21.935477
 H     9.569197    15.059593    20.162657
 C    10.187505    18.559668    17.592420
 C    11.286455    17.815441    17.189832
 C    11.161334    16.429708    17.098615
 C     9.953447    15.817823    17.423764
 C     9.572102    18.479945    21.863152
 C    10.749512    17.755406    21.809184
 C    10.737495    16.508704    21.183050
 C     9.555150    16.030731    20.633594
 H    10.264562    19.638570    17.673354
 H    12.225246    18.304308    16.957664
 H    12.006027    15.819258    16.800438
 H     9.903888    14.741170    17.396823
 H     9.561199    19.445937    22.356633
 H    11.658523    18.149625    22.247811
 H    11.639334    15.911800    21.118926
