  212
FINAL HEAT OF FORMATION = -3334.932611
 C     0.835730     0.001112     0.010863
 C    -0.835559    -0.001120    -0.011198
 C     1.472221     0.332185    -1.397083
 C    -1.472055    -0.332191     1.396787
 C    -1.454455     1.389393    -0.436817
 C     1.454624    -1.389479     0.436209
 C     1.430357     1.065601     1.014364
 C    -1.430172    -1.065728    -1.014515
 C     1.030529     1.125925     2.361615
 C    -1.030385    -1.126195    -2.361765
 C    -1.067920    -1.449403     2.158061
 C     1.068151     1.449360    -2.158435
 C     1.066759    -2.597650    -0.169021
 C    -1.066472     2.597657     0.168118
 C     2.496952     1.884849     0.621415
 C    -2.496926    -1.884708    -0.621477
 C    -2.577223     0.392702     1.851967
 C     2.577491    -0.392688    -1.852021
 C     2.544751    -1.430918     1.316952
 C    -2.544916     1.430657    -1.317163
 C     1.636797     1.995937     3.277832
 C    -1.636906    -1.996089    -3.277934
 C    -1.721550    -1.810299     3.339302
 C     1.721950     1.810235    -3.339596
 C     1.712699    -3.809796     0.111874
 C    -1.712729     3.809691    -0.112509
 C     3.150758     2.745412     1.516379
 C    -3.150881    -2.745245    -1.516348
 C    -3.277993     0.042942     3.020381
 C     3.278560    -0.042824    -3.020216
 C     3.238787    -2.618196     1.594931
 C    -3.239144     2.617849    -1.595023
 C     2.698153     2.802113     2.838013
 C    -2.698356    -2.802081    -2.838010
 C    -2.831392    -1.052639     3.756276
 C     2.832053     1.052743    -3.756203
 C     2.803885    -3.802135     0.992456
 C    -2.804219     3.801867    -0.992710
 H     0.245727     0.471628     2.700308
 H    -0.245561    -0.471964    -2.700538
 H    -0.243517    -2.043501     1.807532
 H     0.243626     2.043405    -1.808071
 H     0.258686    -2.586602    -0.880219
 H    -0.258240     2.586729     0.879127
 H     2.845909     1.834732    -0.396931
 H    -2.845842    -1.834416     0.396880
 H    -2.924240     1.234634     1.276112
 H     2.924447    -1.234552    -1.276006
 H     2.880061    -0.514428     1.774555
 H    -2.880367     0.514080    -1.774485
 C     1.175811     1.995404     4.753410
 C    -1.176202    -1.995476    -4.753604
 C    -1.297809    -3.034535     4.179276
 C     1.298440     3.034637    -4.179481
 C     1.228455    -5.108279    -0.571547
 C    -1.228599     5.108138     0.571049
 C     4.372394     3.549827     1.021455
 C    -4.372618    -3.549453    -1.021341
 C    -4.525288     0.860481     3.415999
 C     4.526058    -0.860223    -3.415498
 C     4.462171    -2.569812     2.534797
 C    -4.462855     2.569268    -2.534456
 H     3.183581     3.465669     3.536448
 H    -3.184005    -3.465517    -3.536414
 H    -3.352824    -1.339384     4.658935
 H     3.353798     1.339615    -4.658633
 H     3.320728    -4.725128     1.203281
 H    -3.321336     4.724765    -1.203291
 C     5.173894    -0.346255    -4.722065
 C    -5.172365     0.347059     4.723154
 C    -5.132684     3.953365    -2.699069
 C     5.131855    -3.953971     2.699497
 C     4.963748     4.457496     2.125072
 C    -4.963807    -4.457396    -2.124813
 C     5.577647    -0.755271    -2.277261
 C    -5.577500     0.754950     2.278384
 C    -5.515982     1.588159    -1.951405
 C     5.515563    -1.588705     1.952209
 C     5.474488     2.551951     0.570477
 C    -5.474780    -2.551442    -0.570811
 C     4.133812    -2.347237    -3.620176
 C    -4.133016     2.347612     3.619794
 C    -4.016322     2.075502    -3.935227
 C     4.015178    -2.076172     3.935460
 C     3.970278     4.447814    -0.178202
 C    -3.970693    -4.447144     0.178614
 C     1.012808     2.592519    -5.639817
 C    -1.011807    -2.591865     5.639362
 C    -1.998268     6.355659     0.077135
 C     1.996798    -6.356049    -0.076180
 C     1.808656     3.150712     5.565509
 C    -1.810080    -3.150095    -5.565855
 C     0.026826     3.716259    -3.627667
 C    -0.026357    -3.716314     3.627265
 C     0.278147     5.320556     0.271993
 C    -0.278728    -5.319619    -0.273973
 C    -0.365647     2.137245     4.840316
 C     0.365142    -2.138412    -4.840881
 C     2.452890     4.073211    -4.169965
 C    -2.452227    -4.073156     4.170431
 C    -1.433681     4.987087     2.103361
 C     1.435247    -4.988155    -2.103692
 C     1.600881     0.652756     5.404327
 C    -1.600441    -0.652358    -5.404095
 H     0.719390     3.462497    -6.239487
 H    -0.718507    -3.461637     6.239391
 H    -1.596104     7.243282     0.578294
 H     1.594482    -7.243687    -0.577190
 H     1.413355     3.126227     6.587202
 H    -1.415125    -3.125534    -6.587681
 H     1.896159     2.139149    -6.100455
 H    -1.894999    -2.138031     6.099876
 H    -3.065767     6.286935     0.314788
 H     3.064565    -6.288227    -0.312880
 H     2.898238     3.051823     5.623724
 H    -2.899620    -3.050473    -5.623632
 H     0.198196     1.861592    -5.660209
 H    -0.197022    -1.861117     5.659286
 H    -1.881844     6.490180    -1.004151
 H     1.879271    -6.489834     1.005077
 H     1.562345     4.122829     5.123753
 H    -1.564246    -4.122521    -5.124513
 H     2.168753     4.954791    -4.757317
 H    -2.167776    -4.954613     4.757812
 H    -1.091683     5.903586     2.599855
 H     1.093131    -5.904662    -2.600093
 H     1.287039     0.628486     6.455285
 H    -1.286706    -0.628014    -6.455084
 H     2.667045     4.388351    -3.143106
 H    -2.666788    -4.388493     3.143716
 H    -0.866451     4.142592     2.504112
 H     0.869048    -4.143460    -2.505458
 H     1.137631    -0.190971     4.883459
 H    -1.136563     0.190912    -4.883048
 H     3.367041     3.650085    -4.599118
 H    -3.366237    -3.650066     4.599907
 H    -2.493417     4.835136     2.335123
 H     2.495332    -4.837065    -2.334406
 H     2.688760     0.534573     5.358927
 H    -2.688235    -0.533448    -5.358538
 H    -0.238198     4.557641    -4.278648
 H     0.238678    -4.557708     4.278224
 H     0.624670     6.244976     0.750752
 H    -0.625293    -6.244094    -0.752594
 H    -0.674684     2.132936     5.892853
 H     0.673956    -2.134171    -5.893484
 H    -0.819261     3.022329    -3.597686
 H     0.819831    -3.022519     3.597103
 H     0.441161     5.402948    -0.808090
 H    -0.442915    -5.401325     0.805985
 H    -0.685384     3.080110     4.385844
 H     0.684286    -3.081575    -4.386627
 H     0.187272     4.104874    -2.617820
 H    -0.187053    -4.104933     2.617451
 H     0.877573     4.488554     0.650384
 H    -0.877280    -4.487476    -0.653428
 H    -0.876380     1.317043     4.329548
 H     0.876577    -1.318659    -4.330097
 H     6.049358    -0.962888    -4.954381
 H    -6.047704     0.963777     4.955714
 H    -5.994982     3.856009    -3.368173
 H     5.993930    -3.856737     3.368905
 H     5.820522     5.005383     1.717080
 H    -5.820728    -5.005076    -1.716851
 H     4.474849    -0.414415    -5.563252
 H    -4.472831     0.415582     5.563906
 H    -4.440004     4.679424    -3.139249
 H     4.438980    -4.680034     3.139368
 H     4.225157     5.187940     2.474153
 H    -4.225207    -5.188018    -2.473499
 H     5.506489     0.692740    -4.618467
 H    -5.505006    -0.691985     4.620190
 H    -5.488359     4.338895    -1.736954
 H     5.487835    -4.339426     1.737465
 H     5.312613     3.867693     2.980119
 H    -5.312404    -3.867810    -2.980121
 H     6.478067    -1.320406    -2.547305
 H    -6.477821     1.320126     2.548674
 H    -6.395465     1.552573    -2.605800
 H     6.394829    -1.553262     2.606900
 H     6.359764     3.102055     0.228751
 H    -6.360145    -3.101445    -0.229151
 H     5.855468     0.291853    -2.112434
 H    -5.855318    -0.292271     2.114166
 H    -5.831884     1.918642    -0.955631
 H     5.831772    -1.919098     0.956500
 H     5.763396     1.903435     1.405171
 H    -5.763499    -1.903108    -1.405711
 H     5.183267    -1.158642    -1.339437
 H    -5.183657     1.157944     1.340175
 H    -5.107818     0.576452    -1.864591
 H     5.107507    -0.576955     1.865372
 H     5.119831     1.920103    -0.249857
 H    -5.120297    -1.919415     0.249458
 H     5.023205    -2.933637    -3.881471
 H    -5.022321     2.934080     3.881228
 H    -4.879695     2.031863    -4.610484
 H     4.878316    -2.032651     4.611026
 H     4.850163     4.988786    -0.547063
 H    -4.850638    -4.988030     0.547461
 H     3.695671    -2.767470    -2.710201
 H    -3.695320     2.767459     2.709420
 H    -3.571957     1.078309    -3.874364
 H     3.570892    -1.078950     3.874546
 H     3.562156     3.851364    -0.999866
 H    -3.562712    -3.850486     1.000200
 H     3.401255    -2.438552    -4.429122
 H    -3.400094     2.439346     4.428361
 H    -3.272592     2.759838    -4.358425
 H     3.271264    -2.760514     4.358331
 H     3.213346     5.176453     0.129617
 H    -3.213703    -5.175853    -0.128893
