   66
FINAL HEAT OF FORMATION = -2147.833072
Cl     9.404238     8.801968     3.502168
Cl     4.367427    10.554635    -0.142274
 C     7.066252    10.606571     0.606043
 C     7.702088    11.920874     0.098186
 C     9.166132    11.258651     0.806759
 C     8.182758    10.223138     1.409807
 C     8.061526     9.212093     2.311231
 C     6.856556     8.448067     2.402924
 C     6.705219     7.346891     3.285357
 C     5.527778     6.636000     3.341221
 C     4.436845     6.996891     2.520443
 C     4.541300     8.064198     1.657624
 C     5.740170     8.817662     1.564694
 C     5.880558     9.949464     0.703711
 C     6.958855    13.085078     0.851477
 C     6.182422    12.830960     1.998184
 C     5.497620    13.850761     2.658435
 C     5.556013    15.162355     2.188310
 C     6.293806    15.431206     1.037029
 C     6.971936    14.406658     0.373728
 C     7.692982    12.255374    -1.397586
 C     6.752041    11.696635    -2.274897
 C     6.718249    12.056509    -3.623048
 C     7.618942    12.994541    -4.128699
 C     8.555092    13.568019    -3.268152
 C     8.591612    13.200452    -1.920891
 C     9.955196    12.206449     1.829774
 C    10.214167    13.610321     1.219633
 C    11.338738    11.664969     2.294968
 C     9.153438    12.407841     3.148020
 C    10.051608    10.398725    -0.269922
 C     9.165044     9.580598    -1.259345
 C    11.029773    11.245975    -1.126576
 C    10.907215     9.294147     0.431379
 H     7.542018     7.073503     3.912062
 H     5.437609     5.795019     4.018147
 H     3.514174     6.431490     2.570530
 H     3.708545     8.347597     1.029713
 H     6.110647    11.826087     2.386484
 H     4.913013    13.611924     3.539420
 H     5.023073    15.955175     2.699695
 H     6.332487    16.437740     0.636334
 H     7.486930    14.642332    -0.544946
 H     6.038219    10.977819    -1.905717
 H     5.982076    11.601705    -4.275843
 H     7.591271    13.274608    -5.175081
 H     9.263212    14.299296    -3.641473
 H     9.329140    13.653899    -1.273275
 H     9.277597    14.123752     1.004241
 H    10.820907    13.551917     0.312318
 H    10.765073    14.210410     1.953685
 H    12.066748    11.618793     1.483824
 H    11.724273    12.364623     3.046370
 H    11.245043    10.684751     2.763551
 H     9.727572    13.077233     3.799695
 H     9.022604    11.457246     3.670508
 H     8.182205    12.856887     2.969054
 H     8.564561     8.834662    -0.731969
 H     8.514545    10.208644    -1.858103
 H     9.839863     9.048336    -1.939625
 H    10.495030    11.909749    -1.803294
 H    11.628477    10.556949    -1.734685
 H    11.717591    11.829098    -0.511261
 H    11.296909     8.639126    -0.356646
 H    11.758262     9.687471     0.980396
 H    10.305328     8.683584     1.102776
