   62
FINAL HEAT OF FORMATION = -6502.257579
Br     5.971301     2.892538     5.818180
Br     0.306450    -0.615759     6.555547
 C     4.017967     0.803655     3.562909
 C     2.459345     0.079351     3.698687
 C     2.562166     0.508255     5.172428
 C     1.918422     0.416082     6.365474
 C     2.477959     1.095273     7.493703
 C     1.868290     1.066384     8.775016
 C     2.402829     1.746090     9.844718
 C     3.587284     2.497488     9.685926
 C     4.213164     2.548403     8.462134
 C     3.699047     1.859310     7.332918
 C     4.353905     1.880559     6.060968
 C     3.797176     1.182154     5.037066
 C     5.107606    -0.232681     3.329199
 C     5.074967    -1.023694     2.168246
 C     6.077907    -1.955481     1.907686
 C     7.131551    -2.123729     2.810399
 C     7.168274    -1.353249     3.971924
 C     6.164560    -0.414753     4.228214
 C     4.137701     2.030321     2.654640
 C     3.386200     3.182803     2.942040
 C     3.477914     4.317454     2.140002
 C     4.329630     4.329767     1.032252
 C     5.091326     3.198248     0.743200
 C     4.999482     2.060534     1.548855
 C     2.383972    -1.440891     3.534101
 C     3.089176    -2.270917     4.422459
 C     3.037181    -3.657388     4.303360
 C     2.272271    -4.249341     3.294854
 C     1.556484    -3.438433     2.414976
 C     1.608432    -2.047536     2.535625
 C     1.411507     0.829708     2.889254
 C     0.290182     1.415996     3.487244
 C    -0.671948     2.072293     2.714283
 C    -0.528745     2.150765     1.329541
 C     0.589734     1.574527     0.721133
 C     1.550975     0.926277     1.494367
 H     0.959237     0.493128     8.893100
 H     1.913297     1.705604    10.810365
 H     4.004749     3.033873    10.529541
 H     5.122693     3.119823     8.338752
 H     4.246075    -0.926327     1.478418
 H     6.029338    -2.559372     1.008947
 H     7.909558    -2.851516     2.611514
 H     7.977722    -1.477018     4.682194
 H     6.209441     0.181757     5.128000
 H     2.723360     3.184852     3.796806
 H     2.885295     5.192354     2.380822
 H     4.403161     5.213592     0.409170
 H     5.768251     3.199075    -0.103633
 H     5.612630     1.198168     1.327461
 H     3.684773    -1.824033     5.207045
 H     3.593061    -4.275423     4.998833
 H     2.229628    -5.328470     3.203329
 H     0.946035    -3.884122     1.637758
 H     1.029950    -1.431023     1.861872
 H     0.162639     1.355186     4.558422
 H    -1.532655     2.518728     3.198922
 H    -1.274529     2.659706     0.730102
 H     0.720899     1.642337    -0.352599
 H     2.430146     0.513836     1.015533
