   54
FINAL HEAT OF FORMATION = -1300.407700
 C     9.114824     5.468299    10.805921
 C     7.708460     6.200278    11.461681
 C     7.520019     4.279906     9.191632
 C     6.413711     4.855700     9.707463
 C     9.112483     3.953691    10.943961
 C     9.860415     3.218531    11.857547
 H    10.500926     3.730477    12.565754
 C     9.772235     1.819825    11.859792
 H    10.359188     1.247005    12.568457
 C     8.933205     1.163609    10.959794
 H     8.869623     0.081665    10.968879
 C     8.165241     1.897839    10.045169
 H     7.502346     1.393411     9.352331
 C     8.256719     3.282920    10.038243
 C     9.339012     5.823067     9.344043
 C    10.283994     6.721554     8.860149
 H    10.926401     7.252956     9.552110
 C    10.391151     6.938729     7.479738
 H    11.131214     7.635141     7.102695
 C     9.550751     6.267880     6.591891
 H     9.639067     6.442467     5.525848
 C     8.585898     5.371423     7.072343
 H     7.921891     4.857473     6.387617
 C     8.483232     5.151253     8.439028
 C     6.736611     5.190307    12.051996
 C     6.538811     4.947205    13.407084
 H     7.120985     5.489451    14.142556
 C     5.592727     3.994911    13.809783
 H     5.435231     3.809352    14.866004
 C     4.857681     3.284646    12.861183
 H     4.128764     2.548967    13.180839
 C     5.061180     3.513357    11.493093
 H     4.501827     2.954989    10.751979
 C     5.993767     4.460729    11.093553
 C     6.963501     7.059477    10.451840
 C     6.964046     8.449662    10.408657
 H     7.548907     9.010915    11.127556
 C     6.213894     9.113165     9.428269
 H     6.210463    10.196642     9.398103
 C     5.476828     8.388515     8.492196
 H     4.900237     8.909191     7.736444
 C     5.482506     6.986873     8.519754
 H     4.921882     6.419101     7.786793
 C     6.220489     6.329069     9.494220
 C     9.845425     6.289893    11.869567
 C    11.113847     6.557153    12.362905
 H    12.007924     6.099935    11.955712
 C    11.188482     7.465213    13.435574
 H    12.155915     7.709692    13.859373
 C    10.040083     8.062956    13.971094
 H    10.144086     8.756794    14.797575
 C     8.758474     7.783147    13.461228
 H     7.876185     8.250592    13.882272
 C     8.698437     6.886897    12.404411
