   74
FINAL HEAT OF FORMATION = -1238.016969
 C     0.826358     5.561786     9.029264
 C     1.598651     5.635651     7.650718
 C     0.874234     3.958172     9.688790
 C     1.832816     7.092991     7.165390
 C    -0.473370     3.703304    10.438421
 C    -0.591134     6.261664     8.705026
 C     2.060705     3.777842    10.720940
 C    -1.505090     6.518251     9.939780
 C     1.726953     7.964330     9.508460
 C     3.588254     2.562580     9.078821
 C     1.488768     6.539745    10.081854
 C    -0.338515     7.733617     8.160175
 C    -1.342707     5.516482     7.572016
 C     1.923933     2.439022    11.517279
 C     0.937007     1.354722     9.504188
 C     0.623252     6.709042    11.363518
 C     0.469510     7.746856     6.854434
 C     1.072272     2.708196     8.714508
 C     0.364979     8.622563     9.204438
 C     2.069265     1.240700    10.553864
 C    -0.557899     2.371925    11.206324
 C     3.454047     3.770388    10.034154
 C     3.455113     1.256618     9.884957
 C     2.463226     2.608721     8.020536
 C    -0.529581     5.542509     6.252032
 C    -0.421448     1.214389    10.207200
 C    -0.751138     7.335869    11.023569
 C     0.573788     2.339804    12.251185
 C     2.584362     7.905224     8.233327
 C    -0.492815     8.753338    10.475220
 C     0.856338     4.911975     6.488965
 C    -0.314090     6.988836     5.768830
 H     2.472193     6.157632    10.364203
 H     4.565246     2.595227     8.578596
 H    -1.532696     2.322644    11.710682
 H    -1.237367     1.259690     9.472605
 H     3.550986     7.429945     8.452604
 H     0.739173     3.849585     6.671170
 H     0.531161     9.617135     8.764657
 H     2.250774     8.548757    10.279383
 H     3.623496     4.700409     9.483879
 H     1.155433     7.388302    12.045640
 H     4.240930     1.197293    10.650631
 H     3.562764     0.390930     9.217268
 H    -1.338552     8.147031     7.956047
 H    -2.357193     7.119829     9.588735
 H    -1.443827     9.247464    10.234576
 H     0.536336     1.408636    12.832988
 H     0.498208     5.765410    11.894901
 H     2.036552     4.575966    11.464625
 H     0.457159     3.180030    12.949823
 H     2.782756     8.921720     7.866043
 H     2.588925     5.196768     7.784182
 H     4.228066     3.704253    10.812235
 H     0.272684     2.704187     7.966900
 H     2.743652     2.412023    12.250685
 H     0.243393     6.983493     4.822216
 H    -1.277272     7.488110     5.594982
 H    -1.539754     4.477784     7.860524
 H     2.435583     7.043736     6.246664
 H    -0.478299     0.244155    10.719611
 H    -1.291622     3.736279     9.713109
 H    -1.067262     4.969433     5.484679
 H     0.029363     9.362624    11.225715
 H    -0.638933     4.494985    11.162740
 H     2.482922     1.675465     7.438972
 H     2.645155     3.419370     7.320853
 H    -1.925827     5.605204    10.351312
 H    -1.364528     7.392743    11.932679
 H     0.626941     8.789835     6.541933
 H     1.050603     0.548104     8.765325
 H     1.462246     5.021113     5.577403
 H    -2.314678     6.006204     7.412464
 H     1.939567     0.305685    11.118380
