   55
FINAL HEAT OF FORMATION = -1015.959024
 B     0.334340     0.673441    12.637457
 H    -0.832106     0.834151    12.582514
 B     1.235904     0.240371    14.095433
 H     0.640086    -0.005456    15.085984
 B     2.716943     1.296496    14.192205
 H     3.089714     1.682265    15.245372
 B     2.832054     2.378625    12.775235
 H     3.105782     3.521016    12.845493
 B     2.867869     1.419055    11.289504
 H     3.305235     1.896761    10.300313
 B     1.349434     0.411550    11.199727
 H     0.830052     0.238857    10.151711
 B     1.362571    -0.737771    12.595713
 H     0.869828    -1.811824    12.509621
 B     3.763575     0.911334    12.770494
 H     4.944792     0.973946    12.837853
 B     2.893972    -0.302646    11.765854
 H     3.481554    -1.096061    11.111329
 B     2.821315    -0.389792    13.574818
 H     3.370451    -1.234261    14.198160
 N     0.436505     3.001487    13.944224
 N     0.610896     3.171797    11.545115
 C     1.245359     1.900613    13.537344
 C     1.346552     1.995258    11.890213
 C    -0.225386     3.581572    12.741421
 H    -0.266170     4.667332    12.824124
 H    -1.241150     3.179883    12.628896
 C    -0.131574     3.177546    10.263227
 H    -1.032221     2.543999    10.320827
 H     0.532004     2.755022     9.501490
 C    -0.519226     4.597094     9.878443
 C     0.401140     5.641817    10.034521
 H     1.369317     5.423619    10.469067
 C     0.064288     6.938673     9.647522
 H     0.781497     7.742047     9.771401
 C    -1.194727     7.204155     9.100137
 H    -1.456005     8.212396     8.800609
 C    -2.115946     6.166738     8.945530
 H    -3.095687     6.367415     8.527760
 C    -1.779867     4.868185     9.336894
 H    -2.499832     4.064222     9.222707
 C     0.989933     3.967773    14.929451
 H     1.726390     4.642421    14.468670
 H     1.505216     3.377168    15.693092
 C    -0.126061     4.774565    15.572803
 C     0.032181     6.145786    15.800129
 H     0.943744     6.641294    15.481800
 C    -0.976199     6.878421    16.431862
 H    -0.844923     7.940732    16.602102
 C    -2.152685     6.244532    16.834774
 H    -2.937246     6.812462    17.321031
 C    -2.317849     4.875198    16.603632
 H    -3.231325     4.380037    16.912549
 C    -1.310576     4.143608    15.975521
 H    -1.431829     3.084875    15.780728
