   72
FINAL HEAT OF FORMATION = -1212.712259
 N    10.478652     9.149772     2.725661
 N     8.400570     6.548751     1.958296
 C    12.271291    10.488905    -1.084347
 H    12.565271     9.925641    -1.964547
 C    11.267289     9.978181    -0.254586
 C     7.111110     6.302080    -0.121456
 C    10.885201    10.704266     0.891467
 C     9.865346     8.507037     3.759884
 C     9.827927    10.140074     1.823863
 H     9.367780    10.933870     2.418491
 H     9.036923     9.649146     1.253280
 C    12.909728    11.699238    -0.798337
 B     7.527457     6.847126     4.475670
 C     8.654086     6.778637     3.277897
 B     8.214710     8.497014     3.951744
 C     7.477014     4.750677    -1.949939
 H     7.667105     3.739134    -2.295168
 C    11.541267    11.909997     1.211991
 C     6.973249     7.352061    -1.049992
 C    12.538355    12.392618     0.357997
 H    13.041942    13.321188     0.607085
 C     7.030016     6.563199     1.371725
 H     6.565932     7.529789     1.579549
 H     6.425961     5.791330     1.861121
 B     9.295773     9.110069     5.290005
 B    10.209299     6.656689     3.848178
 C     7.356997     4.988588    -0.578262
 B     7.875452     8.162271     5.673697
 C     7.094759     7.075817    -2.418224
 H     6.983530     7.886553    -3.131017
 C     7.351628     5.784629    -2.884720
 B     8.880173     5.641526     4.578228
 B    10.681652     7.957754     5.082722
 C    13.974163    12.254349    -1.728256
 H    13.516850    12.887910    -2.499240
 H    14.514549    11.446921    -2.232717
 H    14.697722    12.863580    -1.177343
 C    10.608344     8.652572    -0.606778
 H    11.256209     8.070228    -1.268774
 H     9.654801     8.807788    -1.126267
 H    10.406316     8.060774     0.290566
 B     8.368677     6.463791     6.039047
 C     6.675015     8.776730    -0.605296
 H     6.660995     9.448474    -1.468555
 H     7.433283     9.140874     0.095151
 H     5.699316     8.843936    -0.109259
 B     9.483306     7.786827     6.431890
 C     7.459272     3.826256     0.398910
 H     7.801200     2.923625    -0.114957
 H     6.479523     3.611548     0.845054
 H     8.152243     4.045590     1.216882
 B    10.126998     6.320390     5.603751
 C     7.492532     5.500131    -4.369825
 H     8.504923     5.148730    -4.603476
 H     7.298982     6.400316    -4.960600
 H     6.786177     4.723796    -4.686108
 C    11.194106    12.686125     2.474162
 H    11.896993    13.511735     2.616436
 H    11.239065    12.041930     3.359392
 H    10.183774    13.109934     2.415804
 H     7.529833     9.173158     3.263477
 H     8.759463     4.509725     4.253216
 H    11.055616     6.260847     3.118156
 H     9.778072     8.036714     7.552959
 H     6.404618     6.570226     4.222843
 H    11.820619     8.267667     5.189743
 H     7.827084     5.839655     6.889635
 H     6.961339     8.655521     6.245498
 H     9.438491    10.275740     5.441648
 H    10.904345     5.611061     6.149775
 H    11.487532     9.060107     2.634199
 H     9.163708     6.275188     1.346803
