70
 energy: -103.844467577080 gnorm: 0.000271696024 xtb: 6.2.2 (9d81278992624c895f80dd42a50cac0aa55982e2)
H         6.19780620410924    5.90257071217114   23.11808556500145
C         7.93894594357922    4.58086074417363   25.45654961826556
C         8.13784290192575    5.96418327331213   25.51874426869446
C         7.20426029432709    6.75479182028938   24.83622637684197
C         7.37244985815293    8.11990047900104   24.88459292759704
C         6.69795203050189    4.36396309881839   24.61533849476836
C         6.21408104673734    5.79560495509037   24.20653293868567
H         6.68653180595626    8.79157972681613   24.37943350658605
H         6.92114608673788    3.76242023980930   23.72948694310156
H         5.92329683662792    3.84054379843358   25.18316455234023
H         5.19954741531640    5.98004524414264   24.57151732160801
H        12.63384099791041    7.92447412171895   23.01839363915792
C        10.11757835036652    5.73386607654023   26.90536290934618
C         9.92976879227434    4.36376408469440   26.84666154328211
C         8.84359523347402    3.78706775901889   26.12509877724762
C         8.45964113168425    8.69609646532688   25.60746712743805
C         9.36588446977346    7.90313845141991   26.27319186182559
C         9.18866806264553    6.51812177578537   26.21744108910071
C        11.13648286096789    6.66700123755352   27.57058088735882
C        11.11509290396313    6.47515839084014   29.09033903859972
C        10.22963196135215    5.56386219302780   29.67078896854301
C        10.11655032186652    5.40667117415167   31.04269780661409
C        10.88425542360789    6.18703918742964   31.89416165054483
C        11.76022453351990    7.10279356424247   31.34657776394458
C        11.90582019625114    7.24839543582628   29.95938503470048
C        12.89197198029729    8.22618833023314   29.53273209095491
C        13.65711278051936    8.17071356156411   28.43684966139151
C        13.66896249630669    7.12089427378646   27.43270868264592
C        14.91179492124267    6.87286873950862   26.83228076066350
C        15.07774721834692    5.88158706511226   25.88593075720467
C        13.97613705396153    5.12812575534852   25.50887182667549
C        12.73693806682743    5.38525503827895   26.07275722767430
C        12.54354368247210    6.37388151193219   27.04064403463573
C        10.60768808460022    8.18389810818928   27.12945403974705
C        10.05958063325340    8.91652244682443   28.35454600028945
C         8.93051098274760    8.30442298621383   28.91825440936223
C         8.28894676545175    8.78612514216164   30.04447001987781
C        12.58023155502357    8.50786932037579   23.93027611801006
C        11.71933290465713    8.12443543555269   24.94219053314873
C        11.60212031757109    8.81684838139556   26.15621250986299
H        10.60679968563119    3.68354387410645   27.35290654492684
H         8.75613007040400    2.70576244495564   26.12362281308869
H         9.57648650080070    4.96633030648097   29.04884478373820
H         9.40964066235150    4.68808812992518   31.44160032912624
H        10.79370250464551    6.08798019105529   32.96965606209497
H        12.36746472368827    7.72213086426780   31.99846319974320
H        13.07737071025045    9.02837452654184   30.24239853609071
H        14.42439566797147    8.93066571026294   28.31320377056927
H        15.76283472554800    7.47275367801713   27.13747039738957
H        16.04993231825333    5.70334124567137   25.44124667600711
H        14.07084321420423    4.35168593350032   24.75826809377608
H        11.89906342487964    4.80286681872547   25.71314019121727
H         8.53672218363825    7.40149275133073   28.46795983650895
H         7.42668087384911    8.26114555864790   30.43902696233977
H        11.12153288382467    7.23601871452951   24.77920876751422
H        14.05691393009505    9.95612992253072   23.32468614933648
C         8.76336811578349    9.93629853739417   30.65851163066942
C         9.86301815317921   10.56660772691797   30.11657263092267
C        10.52683938032439   10.08837594636610   28.96983139508876
C        11.65631729324804   10.90002176335105   28.56103143686616
C        12.42588202067447   10.84974336065557   27.46586261634805
C        12.39078130434277    9.96687161320216   26.31658111835402
C        13.26356658296684   10.34424261737220   25.27730584108288
C        13.37029876991322    9.63579841404693   24.09960201263294
H         8.54903436999439    9.77716294911254   25.61812371579139
H         8.28203938922852   10.33332926005560   31.54463675768161
H        10.23808936800648   11.46990870281179   30.58686498603995
H        11.88818296351740   11.69736489071884   29.26399117341069
H        13.19966346169423   11.61160992745756   27.39815834562605
H        13.87334964018314   11.23112351387688   25.41660394267941
