66
 energy: -98.526296843661 gnorm: 0.000202463006 xtb: 6.2.2 (9d81278992624c895f80dd42a50cac0aa55982e2)
C         8.12145422088751   12.13416032732158   17.25064212290626
C         7.95391363146743   11.52107721521362   18.46967095321559
C         7.44233027528643   11.83584119944154   20.93510265894128
H         8.35662004809820   11.53192419847487   16.37935756834364
H         8.05560958300789   10.44522457213442   18.56032155681232
H         7.51819874245479   10.77537905268692   21.14933083477487
C         7.70173090201512   14.31739402218854   18.16839495867506
C         7.99956998573493   13.53043101500008   17.07848959841760
C         7.64727710175886   12.29649149735979   19.61178251071690
C         7.14936009221642   12.72588969073727   21.94084893415902
C         7.03944746883505   14.11632059104467   21.71412583080292
C         7.23309991925474   14.58673479046715   20.44254782615354
C         7.53251490350322   13.68459669722066   19.40975126776225
C         7.50786652076426   15.82775461987453   18.30108923734884
C         6.34101096324147   16.28607919037868   17.41643831147571
C         5.60800567240671   15.35370439444821   16.67803622778008
C         4.49698574910390   15.70402648881126   15.92778632518814
C         4.05990218801824   17.01985478430863   15.91106469040202
C         4.75759655883354   17.95918583035182   16.64325831355047
C         5.90165739848430   17.62182814821827   17.38107899903516
C         6.54252988300955   18.72483855271524   18.07565951297286
C         7.84857785954886   18.87070329772681   18.32395061039032
C         8.91682043311794   17.95853313986461   17.95415855221876
C         8.79103358175883   16.55935312080084   17.88605050520138
C         7.17873703240815   16.01532688461641   19.89976106550749
C         5.71899518639296   16.43412471218230   20.09190788847442
C         4.79470818321393   15.46440024017384   19.67678321449194
C         3.42535204686392   15.64905327884451   19.72982188030935
C         2.91808579358073   16.84263238805296   20.22262969650605
C         3.80408118984708   17.80739642815601   20.65176931310083
C         5.20120346319414   17.63346176679777   20.60514802365601
C         5.95264875779083   18.76605720705365   21.10898008029209
C         7.25963272547577   18.91082175563166   21.36308154592786
C         8.36515353794688   17.98427198149517   21.21944494882810
C         8.34066626859489   16.72607256477653   20.59800968879482
H         8.14359248370594   13.95235871326137   16.09026983177840
H         6.99508050997084   12.35703017143189   22.94947027816839
H         6.80633970483225   14.77976840991964   22.53891338092572
H         5.87793129979528   14.30635597618040   16.69756737489738
H         3.96244014294975   14.93875520003820   15.37671519731852
H         3.18182356614133   17.30580300692422   15.34374530098893
H         4.42721031355759   18.99265562897390   16.64541191754833
H         5.88222349383921   19.55045554760219   18.32835421499440
H         8.18033260183276   19.80707898895075   18.76512783252067
H         5.15580772244314   14.52393734310188   19.27909758793249
H         2.76235748576799   14.86527074005908   19.38232861264353
H         1.84939628228485   17.01609172766372   20.27025502653338
H         3.41702472746941   18.74250345179177   21.04350100044691
H         5.32845392843310   19.62659792128953   21.34022776967965
H         7.55709681204195   19.87344274521553   21.77353111926902
H         9.55567111595490   15.01562117707003   20.12438481082910
C        10.14889631201117   18.56203931559045   17.66273238759710
C        11.24738940125512   17.82334017145494   17.27193263791162
C        11.12743178672976   16.44429549258092   17.19061275495839
C         9.92349455106456   15.83496717671774   17.50543589601401
C         9.57459514268688   18.44618145856866   21.77470717970942
C        10.73896173737704   17.70925415171523   21.74265694574220
C        10.71583132011863   16.45912353155896   21.14144443603857
C         9.53609180512943   15.99267815248704   20.59125212319059
H        10.22627931314726   19.64167607748179   17.73761583139953
H        12.18711631846797   18.31301431021339   17.04461953945212
H        11.97578831890979   15.83334977286176   16.90417254352487
H         9.89627233790319   14.75400406208929   17.47384888691215
H         9.58150526431583   19.42350334043516   22.24627817255887
H        11.65077629568398   18.10098024127230   22.17809432454569
H        11.61015003606108   15.84874035092685   21.09507983083415
