68
 energy: -102.728040863976 gnorm: 0.000233836545 xtb: 6.2.2 (9d81278992624c895f80dd42a50cac0aa55982e2)
C         9.17439649460676   11.48698884431077   15.36195872232376
C         8.21482377435924   12.43587165095647   15.68746070731178
C         7.11238683808146   12.13581558676151   16.53801204589781
C         6.95068762637192   10.87099833528027   17.07902977321768
C         7.93636288164151    9.92868631513684   16.73301115448855
C         7.72826293837249    8.65880483191005   17.30518947611419
C         8.66887244318018    7.69011156537569   16.99779695637622
C         9.77650909410184    7.98603157779409   16.15039912008305
C         9.94869087414814    9.24247167245033   15.60659460359603
C         8.99460608991143   10.21732043328236   15.91772366978275
C         6.04534709430065   10.11384677027760   17.94849443561322
C         6.49520731874212    8.83407602890136   18.07911652066462
C        10.44058304062789   11.45397638217481   14.49976211400389
C        11.45687885649465   12.47819608370171   15.01214775530115
C        11.16661041403300   13.24717517318369   16.14160743191718
C        12.08090681568775   14.12768772662175   16.69709522680949
C        13.34641914768305   14.25150302546313   16.14340985992803
C        13.66166693087819   13.49637219969190   15.03170059189647
C        12.73371931705601   12.62601269252991   14.44128520791201
C        13.19773218497394   11.93052438341694   13.25365788744199
C        12.46369115971165   11.55547797244726   12.19996309834886
C        11.03746225055761   11.75294254238472   12.00958153992949
C        10.62562345512475   11.93538239397096   10.68117916141414
C         9.30431048531560   12.16246608778260   10.35271527928021
C         8.36013277505089   12.18967787006797   11.36815854846692
C         8.75081071119508   11.98035805428424   12.68075713735201
C        10.08247734870585   11.76033099694864   13.04215218838469
C        10.99416234613212    9.89063269963242   14.69195260248101
C        12.27251759298855    9.89978206885516   15.53182481608745
C        12.08339643163800   10.35253197540928   16.84572267785953
C        13.11010066111850   10.46230664633162   17.76558303683937
C        14.39861709792091   10.10779466157894   17.39330081151393
C        14.61104175578894    9.65037609534128   16.11040501335295
C        13.57541589078309    9.52967586887203   15.16334033222464
C        14.01011181155158    9.02308837582781   13.87647391101189
C        13.31089150260535    8.63407715822476   12.80234189549657
C        11.88217818008586    8.59329106982153   12.56067756191213
C        11.52127099519756    7.94536877251930   11.36323544912690
C        10.21113582425951    7.80214976995037   10.95902236358189
C         9.20718634756564    8.31332791776842   11.76880956581254
C         9.54584372511406    8.95321137274441   12.94699951244741
C        10.87030656524540    9.12589962554693   13.37477181764621
H         8.27767510766699   13.44579428816832   15.29520611305327
H         6.40657179697551   12.93451301309187   16.74270814834479
H         8.59228057827794    6.68159336500324   17.39148078698787
H        10.48460916695600    7.19035973948090   15.94388909298796
H         5.15734351814612   10.52040183022520   18.41088252103937
H        10.20957434757530   13.14924046885096   16.63646775465363
H        11.80648596220321   14.69782949257676   17.57726171192505
H        14.07885771668432   14.92154546898541   16.57837470685203
H        14.64746959280746   13.58064038563617   14.58627578478922
H        14.27492545308913   11.79765262337485   13.19423107303584
H        12.98437019562187   11.13820010837917   11.34181137836978
H        11.37693180311112   11.90850069551900    9.89882677392846
H         9.01153007390398   12.30722140172396    9.31930202029143
H         7.31230703793069   12.35156828847408   11.14245016713631
H         7.97222446047737   11.96524576659878   13.43167646752906
H        11.09255307795412   10.64713839731022   17.16841293478599
H        12.90092974298780   10.82759781700118   18.76429259810702
H        15.22231335632689   10.18819987361602   18.09290730269796
H        15.61499288893459    9.36796284421793   15.81048725195885
H        15.09049996066058    8.92164648090943   13.79844752378878
H        13.89832711214663    8.25918704933604   11.96688723180742
H        12.31315981408581    7.54472341535796   10.73866807510303
H         9.97408553755447    7.30027869335980   10.02825454498221
H         8.16491682386842    8.22055750728980   11.48662845450415
H         8.73846545257812    9.34694486972093   13.55225460915445
H         6.02279433256594    8.05669484025909   18.66240339093569
