66
 energy: -93.394042714076 gnorm: 0.000680142840 xtb: 6.2.2 (9d81278992624c895f80dd42a50cac0aa55982e2)
Cl        9.44542363852610    8.77057235811282    3.35809587754557
Cl        4.43895176053862   10.61777700305282    0.02340165147117
C         7.08941943434040   10.62226538162678    0.64963066267323
C         7.75640383597436   11.90081295351777    0.15038573596344
C         9.13638709520538   11.27106806905784    0.78787824112690
C         8.21436381041596   10.21924789731277    1.40309577651416
C         8.14668193702781    9.18947063738687    2.29537248521014
C         6.92190701412745    8.45919906618608    2.38271701333358
C         6.79065518010318    7.33688282114394    3.23152488291736
C         5.61656333552577    6.63466326723111    3.31484509251462
C         4.50676897003881    7.02737998552162    2.55162340800654
C         4.59576082817235    8.11480222343955    1.72245206400287
C         5.79113845601240    8.85910089234781    1.60744364599390
C         5.87492931358551   10.01070768485697    0.76761159783117
C         7.03939898495577   13.07003012297256    0.86087414104908
C         6.26712297121035   12.84286198438806    2.00719850236845
C         5.52654849121540   13.85222180372704    2.60354772363519
C         5.52705844408064   15.13274429719144    2.07217802219625
C         6.27771142051098   15.37946482054947    0.93467475938484
C         7.01123284965646   14.36398470617482    0.33626778369283
C         7.71823615040576   12.21571928879845   -1.33487226379013
C         6.75526507168794   11.64186767949449   -2.16465328015010
C         6.67144271287419   11.97689011802900   -3.50838487701906
C         7.54821339927429   12.90069700435648   -4.05728879933258
C         8.50572561486058   13.48837016086365   -3.24458620220952
C         8.58544039291798   13.15500785535295   -1.89936508096655
C         9.91878137033241   12.18782118380834    1.80749979696806
C        10.22814187094145   13.57317951407755    1.21494918316572
C        11.25748814051544   11.61882911252616    2.32118449427819
C         9.10267552692676   12.42004277994977    3.09853148535870
C        10.02418019079629   10.46644141886214   -0.27307033826601
C         9.18923768780178    9.80520597141374   -1.39705166355164
C        11.10418697375304   11.29142769176523   -0.99256243285500
C        10.72283664449027    9.25589863900488    0.39058110587977
H         7.64741931799598    7.02900449238695    3.81934071054104
H         5.54255883395298    5.77335205151892    3.96891977629719
H         3.58058271300295    6.46811808993827    2.61913720552481
H         3.73886905951007    8.41897745344141    1.13269673944728
H         6.23388402253863   11.86146288407454    2.46279378615035
H         4.94239314818542   13.62726312932134    3.48885098467626
H         4.94526479216604   15.92214973449275    2.53355485836020
H         6.29035322117337   16.36954474373420    0.49261962737608
H         7.54855895345259   14.61175168216733   -0.56910774463857
H         6.06396345914558   10.91251496149138   -1.76687868782118
H         5.91296574672371   11.50918674379860   -4.12630477663496
H         7.48502233599724   13.16194090606446   -5.10740016454423
H         9.19632105959379   14.21728041979428   -3.65415422709701
H         9.33543158087708   13.64406690876655   -1.29271994624351
H         9.31861873384085   14.09425848644914    0.92783787518601
H        10.88523438330651   13.50699139176263    0.35100056115297
H        10.73147570340877   14.17912722147944    1.97012040515726
H        11.98431416902580   11.43848893911392    1.53512758895069
H        11.69909911750547   12.35228334851138    2.99853005021985
H        11.10094650310788   10.70458824613930    2.88975774239637
H         9.75286995263317   12.85836245409337    3.85688029732767
H         8.70890394304367   11.48568418068987    3.49381070850964
H         8.28168502145346   13.11230493608470    2.94234913823959
H         8.23728081732606    9.42244096069147   -1.03470614115833
H         9.00590468134043   10.48674072882276   -2.22202768269480
H         9.75255328071159    8.96299740316523   -1.80115242623324
H        10.67317007541861   12.12393114507550   -1.54107092075457
H        11.60329130343833   10.64598383272412   -1.71791895308390
H        11.86651713587488   11.67357397037482   -0.31940977232750
H        11.43759751251781    8.83549007912878   -0.31826108630551
H        11.26436736754967    9.49292317789292    1.29771002834934
H         9.99490253538053    8.48065890270768    0.62494425073486
