66
 energy: -81.090600492179 gnorm: 0.000731856062 xtb: 6.2.2 (9d81278992624c895f80dd42a50cac0aa55982e2)
N         5.81041578029168    7.69557326271499    4.12412096372527
C         5.61246325466184    7.10765662646214    2.82472710907970
C         4.81850409950397    8.58723809481366    4.62604885229897
C         5.01993237804803    5.84730320720639    2.71956020375609
C         4.81890322044812    5.29023131789962    1.45910951169025
H         4.34533800025907    4.31659240861716    1.38409909327089
C         6.09990163601837    7.74892529990959    1.67817105210290
C         5.89248553588167    7.16307923875690    0.43418484355431
H         6.25892503730196    7.66670835209903   -0.45466358515026
C         5.22984469861639    5.94693447959537    0.30731993704362
C         4.64671789144058    5.03013205647136    3.92613747330887
H         4.99811260955494    5.50713211700858    4.83808933430211
H         5.09845089944144    4.03932626208661    3.85306314312237
H         3.56572148072226    4.90075547481973    3.99268217131368
B         3.16100770197684    8.14340996932973    4.60300423814993
H         2.86896360614413    7.09905739724731    4.15598819152299
B         5.07847114770134   10.31233059954536    4.59617204778995
H         6.06516947058094   10.69133457527577    4.07823218720365
C         5.01707769069137    5.33113815682170   -1.04912532054350
H         5.90160116918804    4.76087005096985   -1.34276050858665
H         4.84660408560316    6.10178161714743   -1.80147491834548
H         4.16350251157792    4.65313981926205   -1.03841445916092
C         6.85800641065171    9.04939679884915    1.73817813501572
H         6.17025095296552    9.89070330770610    1.83203026216583
H         7.43898172736080    9.18929373227903    0.82623090775477
H         7.54220707774331    9.07410323541516    2.58744323919331
B         3.74460989912969    9.56638472880758    3.63135416935163
H         3.83537547239475    9.43908100079508    2.46669814876505
B         2.21702183571698    9.67766388777958    4.58039713606898
H         1.16817523447433    9.74614121102857    4.05193489390394
B         3.43138086502497   11.06230724116432    4.60244563179211
H         3.23154025841541   12.08911617171584    4.06325947718650
H         6.71085279225013    8.16713458555909    4.14824833894136
N         4.32703380347578    6.83913847791074    6.61237733786119
C         4.93515903935617    6.71661310389806    7.91177204023274
C         4.05078086244999    8.14399107454651    6.11045019894511
C         6.32292271876376    6.59958688078609    8.01694092319266
C         6.90587398398082    6.49514717913354    9.27739251060327
H         7.98585268033652    6.41844915122625    9.35240466795590
C         4.13608337674749    6.61511021548957    9.05832686048488
C         4.74714732358688    6.50181519257474   10.30231385668120
H         4.12777098882646    6.43628206641953   11.19116143413996
C         6.13168003089511    6.46760983397503   10.42918084219604
C         7.21722304260754    6.51421882413938    6.81036512625031
H         6.62843324248113    6.44840301036282    5.89841201790810
H         7.84942104633957    5.62760468457339    6.88343863635897
H         7.86976290706992    7.38570240206460    6.74382379666064
B         5.26389260262447    9.35751439725863    6.13349455550113
H         6.31435165795086    9.08825816883556    6.58050951879831
B         2.42682183398975    8.78139400224114    6.14032766331311
H         1.60524808869465    8.11638693319635    6.65826703485744
C         6.77135678894567    6.34397389558989   11.78562685683475
H         6.82295785460570    5.29282045988972   12.07926430008734
H         6.18919808346212    6.87693380277743   12.53797486975902
H         7.78530965087546    6.74418903443472   11.77491622398671
C         2.63078998088107    6.60880431329396    8.99831759844389
H         2.24607262879993    7.62507058712734    8.90446679081156
H         2.21914785203734    6.17561071107963    9.91026351702941
H         2.26729595616165    6.02862297347673    8.14905093705931
B         3.73975938709299    9.56358151627521    7.10514592534237
H         3.80462582482341    9.42132297656784    8.26980164639624
B         4.40717838211191   10.94215419363135    6.15610386189269
H         4.87229601158843   11.88472132953817    6.68456710818225
B         2.60086314492631   10.58280458382143    6.13405694423048
H         1.81153945633861   11.26927340924866    6.67324449087485
H         3.46843333539156    6.29511432945765    6.58824800553947
