58
 energy: -94.763920817850 gnorm: 0.000691549500 xtb: 6.2.2 (9d81278992624c895f80dd42a50cac0aa55982e2)
I        -0.45194312045483    0.56576026246058    4.65025309409042
I        -0.35013096096508   -4.52571393666050   -0.33052537399403
C         0.79788477654315   -2.93842478290027    4.33195375613995
C         0.83261281474708   -4.10160888454986    3.18507572451139
C         0.10619696831782   -3.10704408458613    2.31644459342317
C        -0.43121994379513   -2.95462035700022    1.07720111243911
C        -1.03865102206597   -1.68463423009572    0.81813713280279
C        -1.63593474489365   -1.40531751617693   -0.42985474354814
C        -2.22959279197246   -0.19996296111833   -0.70025355029575
C        -2.25365786901660    0.80088792416882    0.28169917993084
C        -1.68133332723756    0.56852363068909    1.50513145271801
C        -1.06047778406806   -0.65880999790622    1.82259150327052
C        -0.47359517964757   -0.87721519920174    3.10984326259111
C         0.08744425816757   -2.10071989149808    3.30023599123144
C         0.07746135608889   -3.33249702947364    5.59354459594469
C        -1.27205635367538   -3.52448387604038    5.82021309989530
C        -1.68485285071519   -3.93856085428881    7.08485089097670
C        -0.76207467408307   -4.14967380336954    8.10136680671506
C         0.59086363640941   -3.90171390476811    7.89659861280967
C         1.00474000754134   -3.47651135741340    6.64234300621872
C         2.29718725658849   -2.98109836935902    6.18059187526305
C         3.49221895666174   -2.79515790264328    6.86062830655894
C         4.52848755465442   -2.13040145462181    6.21436938150137
C         4.35814132068322   -1.62840294946316    4.93046000627582
C         3.16447698440051   -1.82434434065832    4.23913406974954
C         2.15073400001116   -2.53450619247926    4.85357708783099
C         0.16819369354816   -5.39391075569289    3.57868332262077
C        -1.16959574672260   -5.68201021122173    3.77121718781858
C        -1.52510410928120   -6.96299320704858    4.18806960060953
C        -0.55819969853441   -7.93746303096703    4.40015952582179
C         0.78405543857836   -7.67152770740097    4.15353133322654
C         1.14118174868282   -6.39993461776107    3.72839468158219
C         2.41556359592646   -5.88055257703322    3.24424249951550
C         3.64126100305979   -6.50626170936979    3.06747515790293
C         4.65514890145684   -5.81071245350351    2.41805390661164
C         4.43351513361627   -4.53256850247162    1.92142584343821
C         3.20740830458088   -3.89680770116334    2.10574863568388
C         2.21442270720281   -4.55986795004765    2.80133553250178
H        -1.61401716306318   -2.18452037822278   -1.18448872224068
H        -2.68030267922504   -0.01800535339685   -1.66924419129625
H        -2.72447666921023    1.75447643126889    0.07094506983904
H        -1.69539727787112    1.33800202071018    2.26988023168641
H        -2.00362594180052   -3.33116997559817    5.04479065633213
H        -2.74080059828363   -4.09284806283075    7.27698311796994
H        -1.10459785282741   -4.48243781008719    9.07490993741711
H         1.30112285633607   -4.02307264517791    8.70660598920849
H         3.61373348068680   -3.14549761685176    7.87929563372257
H         5.47035902748233   -1.97621822605040    6.72922849062469
H         5.16171909843042   -1.07293583772172    4.45982221648820
H         3.03292286383868   -1.40025622583937    3.25109081361253
H        -1.93674632710581   -4.94211913669999    3.57796177727618
H        -2.57103675563629   -7.20177490895582    4.34460433770376
H        -0.85670321869359   -8.92517223402530    4.73357656699799
H         1.53121984010140   -8.44738382847522    4.27637205254412
H         3.80312092546249   -7.52112637949196    3.41242985665607
H         5.62043951520918   -6.28256120592906    2.27162631527702
H         5.22215597059268   -4.02272997830420    1.37948346896403
H         3.03683066523788   -2.91368616568602    1.68397827883230
