54
 energy: -82.583920300233 gnorm: 0.000673333233 xtb: 6.2.2 (9d81278992624c895f80dd42a50cac0aa55982e2)
C         9.08018948908160    5.48260374451637   10.81796405505545
C         7.74021990555586    6.18103797279477   11.44353505586948
C         7.51965907314176    4.27773170507157    9.18934266461050
C         6.41572935414879    4.85272101210876    9.70535020789371
C         9.08502150026200    3.97385227758495   10.93966297165949
C         9.82460227476775    3.25310093912419   11.86196738274200
H        10.46396251333922    3.76592053073969   12.57224214335149
C         9.73351926096199    1.86427513654009   11.87653503495012
H        10.31098220252118    1.29838519183414   12.59919692482297
C         8.90758632138955    1.20189833143797   10.98104706266830
H         8.84201379564552    0.11974981732832   11.00454460823526
C         8.15508369288446    1.91765171075829   10.05374498786717
H         7.49990803178259    1.40374982936522    9.35982633709214
C         8.24978115510579    3.29624343074791   10.03398175759956
C         9.30838349671200    5.81985774387900    9.36011251821121
C        10.24419669236646    6.72602670698833    8.89089059915222
H        10.88647700968493    7.25841219543907    9.58392713876720
C        10.34751781521300    6.95557938467455    7.52195755103108
H        11.07888937978349    7.66611912218137    7.15290949196544
C         9.52012380817529    6.28966643342148    6.63044739997004
H         9.60691273780740    6.48013424318873    5.56646328526938
C         8.57188479759115    5.38090072195626    7.09244819595655
H         7.91594495106825    4.86706618163332    6.39919622873591
C         8.47318230747777    5.14691510138137    8.45090161220417
C         6.75898429276835    5.18586075727336   12.02476461672944
C         6.57418384704159    4.94785040523847   13.37614255150896
H         7.15513219865265    5.49227772980517   14.11267824007201
C         5.64185161193696    3.99734341080460   13.78192603906704
H         5.49604354701799    3.80959251148575   14.83992780261918
C         4.90521570762704    3.28707562386846   12.84613923477439
H         4.18496423266264    2.54584255998812   13.17430343483783
C         5.08771432829203    3.51479426481503   11.48479278569381
H         4.52122775346998    2.95391257692212   10.75043262568379
C         6.00723430520586    4.46407207774196   11.08080470173287
C         6.98271756125024    7.02992279414890   10.44518757362110
C         6.99549790294119    8.41388190011415   10.40616936867490
H         7.57896499014047    8.97676943964402   11.12662706871897
C         6.25972967205187    9.07734900372362    9.42847935351345
H         6.26903900866155   10.16121019183575    9.39610338101757
C         5.52251864148207    8.36464724949763    8.49498821195913
H         4.95696082104009    8.89250051209856    7.73514435834340
C         5.50752009778705    6.97271237287109    8.52213168504928
H         4.94102028219596    6.41214226944666    7.78748771505868
C         6.23130330323095    6.31305375117561    9.49723147971829
C         9.83397858950121    6.27964154569410   11.85656798744528
C        11.09689383360129    6.53967984089418   12.34224166757776
H        11.99365847459677    6.08446579499310   11.93864086850600
C        11.16308169013785    7.44266030459566   13.40836643869457
H        12.13075260686666    7.68715593467476   13.83390162857880
C        10.02463462996877    8.03684508508881   13.94005311842435
H        10.13214980612038    8.73047372472934   14.76743460176444
C         8.74652536655541    7.76647623802946   13.44021217048290
H         7.86895606485068    8.23820497672239   13.86636513964153
C         8.69097326587676    6.87588568738345   12.39025893480948
