23
 energy: -34.086317546180 gnorm: 0.000497255241 xtb: 6.2.2 (9d81278992624c895f80dd42a50cac0aa55982e2)
C         7.81403802198070    5.64196521685562   10.07521554946656
C         7.94831862705432    6.89508516220543   10.58102547810557
C         7.02807434154156    7.91694701953895   10.26384010104996
C         5.95606284414642    7.58672141984656    9.40810704034205
C         5.81787228868890    6.33481083276025    8.90043326448204
N         6.75757900802324    5.33876237876385    9.20561924444109
C         6.54956604612058    4.01164459549436    8.75261905831857
C         7.60728787022274    2.89729763899807    8.66950603257584
C         5.56802294028189    2.96089760605107    9.34166000521096
C         6.06547821567949    3.59214299481401    7.34870369424988
C         6.28492466749029    2.29240733798617    8.15095608425787
I         5.99203452874505    0.30499017068497    7.44765755697046
H         8.49395361282219    4.82860592980118   10.28945253642185
H         8.78060485977316    7.10381315663002   11.24361287608815
H         7.13639233819736    8.91296754566760   10.66779151217733
H         5.22143059330260    8.34011673867538    9.14737972690114
H         5.01247496000089    6.03428589026023    8.24393453950537
H         7.98726730631566    2.49586087165061    9.60820846569005
H         8.40495337405974    3.02651721297149    7.93862759496011
H         4.50351267014788    3.15809067055527    9.22393841920296
H         5.79773232868565    2.57196970514860   10.33260446912419
H         6.74580355889234    3.77532293635385    6.51776709475100
H         5.03641499782735    3.82967696828647    7.08223965570700
