28
 energy: -32.234552608917 gnorm: 0.000491701962 xtb: 6.2.2 (9d81278992624c895f80dd42a50cac0aa55982e2)
B         0.39675479864701    6.64929842297556    5.35143613345746
H         0.85762108284302    6.12995527555489    6.30082094717920
B        -2.01280900596211    7.58270225148230    3.91884534657930
H        -3.17933742873203    7.55520902168040    3.76246466063806
B        -1.19104294981583    6.12677308111454    4.63263324829326
H        -1.85182069614759    5.20270614958725    4.94345820096182
B        -0.99556319806025    8.16890478822299    2.55366135000333
H        -1.38789820499008    8.45355967333976    1.48096006794986
B         0.36475573174839    5.81011896598693    3.77051924061874
H         0.69834449308333    4.74358018383141    3.40602870421724
B         0.58455514450480    8.44407147026856    4.98982271398393
H         1.17442791374027    9.16024786139422    5.71450009951489
B         1.44464725410830    7.22902395007997    3.97684488243719
H         2.60153517797645    7.08874855610388    3.82425468353730
B         0.62132851126232    8.66166326563664    3.18613721461818
H         1.26924990967238    9.42422959070402    2.56655515430271
B        -1.05401260585053    7.75599240320889    5.43685609989282
H        -1.58419059205444    7.98617964265628    6.46229373653732
B        -0.91978761283060    9.02225191871518    4.11472091863845
H        -1.33587625451882   10.11697790517326    4.22436239022249
C         0.42354452186416    7.07450534672903    2.56314452268506
C        -1.04764290061071    6.47657905584090    2.93939244574491
N         0.91807232207011    6.67582773776231    1.29610267222176
N        -1.60394643959155    5.62947534699105    1.93731688986236
H        -1.81764795711970    4.71935380643538    2.32531328978715
H        -2.44839455966054    6.03854434006546    1.55792323251656
H         1.01372605399773    7.47607027950475    0.68283399504278
H         0.26450749042651    6.00994970895420    0.88809715855587
