72
 energy: -87.477136256242 gnorm: 0.000803191382 xtb: 6.2.2 (9d81278992624c895f80dd42a50cac0aa55982e2)
N        10.69135372940391    9.14567953822715    2.48255113883097
N         8.53384669529702    6.48005528050606    1.59980012524402
C        12.46731734157978   11.77648717938717   -0.79640036835276
H        12.73013692700920   11.70975168234939   -1.84724924683113
C        11.45492906668982   10.96449480644166   -0.29482732460372
C         7.08654969527734    6.20353336283892   -0.33622365327420
C        11.10735747824276   11.04261449158092    1.05721111111115
C         9.99755659432805    8.41382869023119    3.43800261418651
C        10.03349335178308   10.15647710446222    1.65123794937272
H         9.36759808057947   10.74405604530733    2.28932392130046
H         9.42355423482651    9.68036095386652    0.87247423320670
C        13.15304649117436   12.66262594876902    0.02586283571614
B         7.59023027938333    6.76749829908383    4.13867689223595
C         8.75870780593051    6.83050573322200    2.92802583100079
B         8.29992044837923    8.39997043920760    3.54401931974897
C         6.39747569813774    4.06158817748033   -1.21587992393962
H         6.09312951755942    3.03409716496731   -1.04499880830095
C        11.80034576688430   11.92693437047182    1.89362725180514
C         7.16129474055087    6.69623186188048   -1.64266487870154
C        12.80957381879207   12.72781535915466    1.37080674095855
H        13.34056176964708   13.40976718285362    2.02691158597999
C         7.42226033225875    7.07814188813271    0.85349197447968
H         7.68307226972099    8.09640595560248    0.53956803123786
H         6.55991796878341    7.14185465438083    1.52369720818408
B         9.39409133414015    9.04544394218195    4.91401872968802
B        10.35739463646653    6.71947614529581    3.47111683568008
C         6.68735319997835    4.87583003556982   -0.12756698796942
B         7.92428165709744    8.10562855409129    5.29570679952737
C         6.86278834558038    5.86220208667512   -2.71691416372850
H         6.92659528250859    6.25530672469725   -3.72643339296281
C         6.48687824357598    4.54074176716900   -2.51828764661477
B         9.01001168684138    5.62317588251268    4.14519654180439
B        10.81508312519211    7.90580816053415    4.84170606540629
C        14.23725301745547   13.54085643400828   -0.53653197602244
H        13.79630443158862   14.43037128807531   -0.99262247697897
H        14.80290657325059   13.01245917775246   -1.30478703600935
H        14.92247165412126   13.86371124397349    0.24742124838042
C        10.75667618162748   10.01978792069849   -1.23929196819410
H        11.22347469219960   10.04933435584353   -2.22393030325697
H         9.70840153079116   10.30185026958796   -1.35266477655271
H        10.80217978561025    8.99371335010306   -0.87021849564227
B         8.46251934386685    6.37191215590953    5.68986344756361
C         7.55334580429401    8.12233169995307   -1.93329709242589
H         7.55257771759971    8.30702681793519   -3.00760351595924
H         8.55482755489567    8.32791452258639   -1.55374345860974
H         6.85879531287969    8.82270466075711   -1.46627082970286
B         9.54732988709767    7.70816329971899    6.12607693069319
C         6.56024366724885    4.30441381706677    1.25823279322937
H         6.13504989215205    3.30133263020986    1.22367858188006
H         5.91905349116302    4.93230532979783    1.87871197110887
H         7.53900190646587    4.25048273913105    1.73707628022964
B        10.26748640696458    6.24769784993072    5.24090579759890
C         6.18611604013186    3.63624588659920   -3.68223176997526
H         6.97448406497018    2.88781592516594   -3.78708946418879
H         6.12266404510156    4.20211314233068   -4.61163396507769
H         5.24292717851002    3.11075561232223   -3.52526813676957
C        11.48193205458094   12.01510726902212    3.36146204753242
H        12.12405560151536   12.74654898389915    3.85219090815127
H        11.63248257481204   11.04420676645247    3.83634136868706
H        10.44197883023422   12.30909109860105    3.51707140047203
H         7.66926017626849    9.11217275684112    2.84869521183352
H         8.93971035368608    4.51789161282262    3.74729436919576
H        11.17051914777055    6.33815636527957    2.70200527038666
H         9.79619753167291    7.97662134112812    7.24537792472431
H         6.50065900007711    6.46497565653418    3.80882739607922
H        11.93294634161549    8.26643858095591    4.92073584416937
H         7.93678899260795    5.70035356869454    6.50197786892427
H         7.03514977839512    8.60797218607686    5.88259296309400
H         9.49896598492915   10.21037228449569    5.04453573566851
H        11.00263132087300    5.50158858955133    5.77912369030567
H        11.37748589138604    8.61040071462225    1.96609555838508
H         9.37493862599731    6.40251262643660    1.04080331565019
