50
 energy: -66.039771759198 gnorm: 0.000902313212 xtb: 6.2.2 (9d81278992624c895f80dd42a50cac0aa55982e2)
B         5.76095795960401    3.60995091200526    3.54437727049091
B         4.18150191254211    4.49542397622529    3.59057988762427
B         3.55649082347167    4.49446155285493    5.29679811391786
B         5.76008627404709    5.39674799626232    3.54763714366292
B         4.38946339710311    5.95774530028727    4.63476218235873
C         4.48130643695762    3.14783754748583    4.66767824549441
C         2.78451958148961    1.67144053645996    4.04356482644632
H         2.10069473486251    2.48823049698443    3.78913831838649
N         3.97079692198638    1.85766660087751    4.48089443770086
C         2.29057545926903    0.31473901280895    3.86194718175806
C         0.98885118787925    0.08798006885286    3.40478308783233
H         0.34316323424221    0.93143763947109    3.18312740862871
C         0.52258361041637   -1.20637522070359    3.23840963833837
H        -0.48913539966463   -1.37473013009598    2.88597312766720
C         1.34734863575160   -2.28719264442607    3.52371691537942
H         0.97964426096391   -3.29879013782040    3.39247419727176
C         2.64401555048055   -2.07143443966035    3.97773710167678
H         3.28805460499551   -2.91572129001890    4.19798129327634
C         3.11377903322544   -0.78151091687101    4.14602382391498
H         4.12367783293922   -0.59918715480216    4.49887132123231
H         2.40840084259493    4.32653823187095    5.49197953764742
H         6.05206702580892    2.79685870954670    2.75001678621152
H         3.43129656285691    4.32773726290966    2.69979224142652
H         6.10886551958557    5.99444552948054    2.59633951314711
H         3.79862329569633    6.95243525689522    4.41819662066164
B         4.73254795749729    3.60996579784555    6.35281527702597
B         6.31200735782503    4.49543227324610    6.30660353352834
B         6.93701810304053    4.49445223154801    4.60038603384097
B         4.73342630966343    5.39676293863055    6.34953819664675
B         6.10405031256043    5.95774540311197    5.26240751988610
C         6.01219676193278    3.14783680355549    5.22951821004533
C         7.70898148388737    1.67144135709942    5.85363856375490
H         8.39280618945339    2.48823265706162    6.10806150142258
N         6.52270350062964    1.85766569337456    5.41631010131277
C         8.20293149681723    0.31474142126787    6.03525236172726
C         9.50466070917940    0.08798862130674    6.49240540525186
H        10.15034342946260    0.93144896694424    6.71406460455707
C         9.97093775783909   -1.20636475148959    6.65877009621625
H        10.98265954913516   -1.37471475345563    7.01120057804523
C         9.14617656659111   -2.28718581973711    6.37346683697332
H         9.51388879880324   -3.29878264320519    6.50469775456116
C         7.84950429265751   -2.07143390679286    5.91945887137179
H         7.20547000153783   -2.91572283332776    5.69921047616791
C         7.37973201417079   -0.78151211547829    5.75117903994213
H         6.36982958658095   -0.59919402324418    5.39833864257786
H         8.08510731164978    4.32652186972893    4.40520600510676
H         4.44143539227875    2.79688260924091    7.14718370766688
H         7.06221178139350    4.32775124770869    7.19739304943970
H         4.38464936030206    5.99447139038529    7.30082984925469
H         6.69489467600914    6.95243486779943    5.47896356152488
