   66
scf done: -1540.058361
 C    -0.002663     4.244445     1.565986
 C    -0.002917     4.716465     0.266585
 C    -0.002523     4.125728    -2.200760
 H    -0.003152     4.951541     2.390909
 H    -0.003553     5.785308     0.069724
 H    -0.003136     5.168707    -2.506095
 C    -0.001157     1.933661     0.833302
 C    -0.001795     2.856402     1.863147
 C    -0.002329     3.801804    -0.817586
 C    -0.001914     3.119729    -3.149392
 C    -0.001073     1.745926    -2.789524
 C    -0.000819     1.407700    -1.456538
 C    -0.001482     2.421391    -0.486150
 C    -0.000177     0.398641     0.879681
 C    -1.270045    -0.123469     1.582218
 C    -2.241016     0.762949     2.074909
 C    -3.461505     0.332516     2.587730
 C    -3.769901    -1.025851     2.601197
 C    -2.826234    -1.924568     2.127894
 C    -1.569023    -1.508054     1.649837
 C    -0.670265    -2.570375     1.233768
 C     0.674045    -2.569436     1.233773
 C     1.571408    -1.505925     1.649717
 C     1.270498    -0.121739     1.582291
 C     0.000036     0.009071    -0.827832
 C    -1.350989    -0.619696    -1.224105
 C    -2.457010     0.236228    -1.053316
 C    -3.772818    -0.157826    -1.252643
 C    -4.041723    -1.458000    -1.675735
 C    -2.974574    -2.310876    -1.894305
 C    -1.627414    -1.929930    -1.683416
 C    -0.670126    -2.979193    -1.982821
 C     0.672698    -2.978484    -1.983339
 C     1.629069    -1.928328    -1.684121
 C     1.351528    -0.618451    -1.224412
 H    -0.001648     2.534414     2.899985
 H    -0.002130     3.382945    -4.203582
 H    -0.000622     0.979365    -3.558431
 H    -2.071444     1.827593     2.015091
 H    -4.179165     1.066416     2.943631
 H    -4.728710    -1.378016     2.970537
 H    -3.043680    -2.989312     2.131409
 H    -1.160493    -3.502895     0.965106
 H     1.165560    -3.501301     0.965105
 H    -2.285205     1.250961    -0.722422
 H    -4.577182     0.548172    -1.069798
 H    -5.060866    -1.796503    -1.838100
 H    -3.163901    -3.322544    -2.243049
 H    -1.136217    -3.918435    -2.274074
 H     1.139552    -3.917227    -2.274997
 H     2.284345     1.252747    -0.722020
 C     2.829301    -1.920743     2.127462
 C     3.771775    -1.020768     2.600753
 C     3.461372     0.337137     2.587730
 C     2.240190     0.765935     2.075187
 C     2.976524    -2.308028    -1.895325
 C     4.042981    -1.454360    -1.676556
 C     3.773035    -0.154593    -1.252896
 C     2.456915     0.238289    -1.053327
 H     3.048241    -2.985183     2.130793
 H     4.731200    -1.371602     2.969762
 H     4.178020     1.071993     2.943701
 H     2.069032     1.830350     2.015765
 H     3.166656    -3.319419    -2.244466
 H     5.062377    -1.791987    -1.839161
 H     4.576825     0.551964    -1.069737
