   68
scf done: -1616.249581
 C     1.556893    -0.000561     1.103153
 C     2.433959    -0.001007     2.188830
 C     3.858111    -0.001183     2.017190
 C     4.420249    -0.000893     0.744290
 C     3.509704    -0.000440    -0.328697
 C     4.140720    -0.000221    -1.587717
 C     3.300870     0.000189    -2.697423
 C     1.874645     0.000340    -2.536100
 C     1.294725     0.000090    -1.276279
 C     2.147098    -0.000299    -0.166557
 C     5.746946    -0.000959     0.095317
 C     5.582779    -0.000568    -1.267631
 C     0.025128    -0.000220     0.979515
 C    -0.575547     1.270322     1.596750
 C     0.249063     2.239204     2.190698
 C    -0.234911     3.466109     2.635441
 C    -1.582486     3.781223     2.473994
 C    -2.421613     2.837690     1.901003
 C    -1.956719     1.573974     1.489518
 C    -2.962969     0.672977     0.956065
 C    -2.963341    -0.671876     0.956077
 C    -1.957513    -1.573485     1.489294
 C    -2.423046    -2.837048     1.900573
 C    -1.584367    -3.781185     2.473186
 C    -0.236566    -3.466881     2.634442
 C     0.248016    -2.240158     2.189918
 C    -0.576162    -1.270622     1.596391
 C    -0.170574     0.000110    -0.825468
 C    -0.750790     1.350806    -1.271017
 C     0.077765     2.456183    -0.992714
 C    -0.295182     3.773250    -1.223189
 C    -1.539871     4.044001    -1.787862
 C    -2.360562     2.977829    -2.111334
 C    -2.002657     1.629711    -1.871478
 C    -3.008438     0.672297    -2.293717
 C    -3.008747    -0.670939    -2.293644
 C    -2.003272    -1.628759    -1.871591
 C    -2.361703    -2.976703    -2.111447
 C    -1.541254    -4.043197    -1.788347
 C    -0.296306    -3.772924    -1.224075
 C     0.077130    -2.455988    -0.993507
 C    -0.751133    -1.350311    -1.271426
 H     2.046318    -0.001227     3.203431
 H     4.477014    -0.001527     2.911120
 H     3.700306     0.000402    -3.708681
 H     1.250557     0.000651    -3.424833
 H     6.699284    -0.001274     0.612253
 H     1.311043     2.058687     2.269757
 H     0.451857     4.182886     3.076811
 H    -1.972145     4.745295     2.787754
 H    -3.477176     3.060731     1.770758
 H    -3.858549     1.162492     0.581289
 H    -3.859219    -1.160885     0.581349
 H    -3.478758    -3.059457     1.770436
 H    -1.974506    -4.745111     2.786802
 H     0.449860    -4.184178     3.075497
 H     1.310109    -2.060246     2.268818
 H     1.048676     2.283208    -0.549893
 H     0.383233     4.577000    -0.953967
 H    -1.860486     5.064162    -1.977633
 H    -3.327094     3.169399    -2.569683
 H    -3.907081     1.138476    -2.692937
 H    -3.907635    -1.136749    -2.692746
 H    -3.328429    -3.167921    -2.569529
 H    -1.862327    -5.063228    -1.978048
 H     0.381951    -4.576919    -0.955192
 H     1.048218    -2.283412    -0.550886
 H     6.386537    -0.000539    -1.994585
