  212
scf done: -3353.623804
 C     0.830022    -0.003359     0.011240
 C    -0.830022     0.003359    -0.011240
 C     1.455461     0.321639    -1.384910
 C    -1.455461    -0.321639     1.384910
 C    -1.425875     1.386379    -0.432193
 C     1.425875    -1.386379     0.432193
 C     1.409511     1.052003     1.006711
 C    -1.409511    -1.052003    -1.006711
 C     1.020814     1.092943     2.353246
 C    -1.020814    -1.092943    -2.353246
 C    -1.056930    -1.437557     2.143859
 C     1.056930     1.437557    -2.143859
 C     1.039195    -2.584383    -0.184454
 C    -1.039195     2.584383     0.184454
 C     2.453268     1.899276     0.622814
 C    -2.453268    -1.899276    -0.622814
 C    -2.553352     0.401176     1.849884
 C     2.553352    -0.401176    -1.849884
 C     2.507125    -1.450132     1.317228
 C    -2.507125     1.450132    -1.317228
 C     1.579702     1.988353     3.268721
 C    -1.579702    -1.988353    -3.268721
 C    -1.687323    -1.791206     3.335384
 C     1.687323     1.791206    -3.335384
 C     1.659661    -3.805615     0.093531
 C    -1.659661     3.805615    -0.093531
 C     3.074116     2.782722     1.515628
 C    -3.074116    -2.782722    -1.515628
 C    -3.246967     0.054911     3.020495
 C     3.246967    -0.054911    -3.020495
 C     3.182230    -2.645173     1.597732
 C    -3.182230     2.645173    -1.597732
 C     2.605696     2.837877     2.831189
 C    -2.605696    -2.837877    -2.831189
 C    -2.796673    -1.037330     3.756790
 C     2.796673     1.037330    -3.756790
 C     2.738599    -3.820299     0.986756
 C    -2.738599     3.820299    -0.986756
 H     0.272376     0.406051     2.706148
 H    -0.272376    -0.406051    -2.706148
 H    -0.237938    -2.038646     1.796317
 H     0.237938     2.038646    -1.796317
 H     0.241692    -2.572397    -0.905791
 H    -0.241692     2.572397     0.905791
 H     2.821521     1.858878    -0.389979
 H    -2.821521    -1.858878     0.389979
 H    -2.911657     1.245675     1.283523
 H     2.911657    -1.245675    -1.283523
 H     2.862960    -0.543859     1.781989
 H    -2.862960     0.543859    -1.781989
 C     1.100484     1.947807     4.728926
 C    -1.100484    -1.947807    -4.728926
 C    -1.224752    -2.999492     4.162978
 C     1.224752     2.999492    -4.162978
 C     1.129145    -5.075101    -0.589846
 C    -1.129145     5.075101     0.589846
 C     4.292010     3.581861     1.027769
 C    -4.292010    -3.581861    -1.027769
 C    -4.482069     0.879591     3.406031
 C     4.482069    -0.879591    -3.406031
 C     4.399508    -2.598935     2.532056
 C    -4.399508     2.598935    -2.532056
 H     3.058824     3.527486     3.529410
 H    -3.058824    -3.527486    -3.529410
 H    -3.310683    -1.320653     4.666767
 H     3.310683     1.320653    -4.666767
 H     3.239612    -4.753764     1.200325
 H    -3.239612     4.753764    -1.200325
 C     5.099335    -0.419048    -4.735827
 C    -5.099335     0.419048     4.735827
 C    -4.999524     3.991877    -2.780777
 C     4.999524    -3.991877     2.780777
 C     4.801761     4.573422     2.085785
 C    -4.801761    -4.573422    -2.085785
 C     5.543353    -0.727346    -2.292701
 C    -5.543353     0.727346     2.292701
 C    -5.484997     1.706404    -1.888461
 C     5.484997    -1.706404     1.888461
 C     5.423697     2.577200     0.708357
 C    -5.423697    -2.577200    -0.708357
 C     4.094728    -2.368629    -3.539772
 C    -4.094728     2.368629     3.539772
 C    -3.988907     1.996953    -3.892597
 C     3.988907    -1.996953     3.892597
 C     3.949205     4.375312    -0.251180
 C    -3.949205    -4.375312     0.251180
 C     1.042780     2.587379    -5.639710
 C    -1.042780    -2.587379     5.639710
 C    -1.956352     6.320621     0.235292
 C     1.956352    -6.320621    -0.235292
 C     1.673177     3.105895     5.562219
 C    -1.673177    -3.105895    -5.562219
 C    -0.113588     3.566396    -3.660399
 C     0.113588    -3.566396     3.660399
 C     0.330040     5.307080     0.142294
 C    -0.330040    -5.307080    -0.142294
 C    -0.439967     2.023368     4.793772
 C     0.439967    -2.023368    -4.793772
 C     2.295908     4.107674    -4.068744
 C    -2.295908    -4.107674     4.068744
 C    -1.154195     4.891081     2.122320
 C     1.154195    -4.891081    -2.122320
 C     1.561571     0.613423     5.354903
 C    -1.561571    -0.613423    -5.354903
 H     0.699645     3.445041    -6.230268
 H    -0.699645    -3.445041     6.230268
 H    -1.542245     7.196360     0.747023
 H     1.542245    -7.196360    -0.747023
 H     1.275689     3.058952     6.582061
 H    -1.275689    -3.058952    -6.582061
 H     1.975694     2.230249    -6.086785
 H    -1.975694    -2.230249     6.086785
 H    -3.001594     6.215061     0.547451
 H     3.001594    -6.215061    -0.547451
 H     2.765445     3.059162     5.632751
 H    -2.765445    -3.059162    -5.632751
 H     0.298892     1.789341    -5.733457
 H    -0.298892    -1.789341     5.733457
 H    -1.938839     6.526472    -0.840767
 H     1.938839    -6.526472     0.840767
 H     1.397809     4.078594     5.138882
 H    -1.397809    -4.078594    -5.138882
 H     2.004629     4.977353    -4.670475
 H    -2.004629    -4.977353     4.670475
 H    -0.790279     5.798696     2.619138
 H     0.790279    -5.798696    -2.619138
 H     1.208565     0.530917     6.390304
 H    -1.208565    -0.530917    -6.390304
 H     2.421305     4.436635    -3.031299
 H    -2.421305    -4.436635     3.031299
 H    -0.514625     4.061796     2.435637
 H     0.514625    -4.061796    -2.435637
 H     1.170864    -0.240768     4.793151
 H    -1.170864     0.240768    -4.793151
 H     3.268487     3.756026    -4.429837
 H    -3.268487    -3.756026     4.429837
 H    -2.170727     4.690127     2.478132
 H     2.170727    -4.690127    -2.478132
 H     2.654664     0.540667     5.359694
 H    -2.654664    -0.540667    -5.359694
 H    -0.431033     4.392562    -4.306806
 H     0.431033    -4.392562     4.306806
 H     0.746886     6.192250     0.639084
 H    -0.746886    -6.192250    -0.639084
 H    -0.772294     1.977815     5.838137
 H     0.772294    -1.977815    -5.838137
 H    -0.902987     2.808358    -3.667982
 H     0.902987    -2.808358     3.667982
 H     0.388195     5.466375    -0.940461
 H    -0.388195    -5.466375     0.940461
 H    -0.805043     2.960731     4.362460
 H     0.805043    -2.960731    -4.362460
 H    -0.041246     3.954644    -2.640838
 H     0.041246    -3.954644     2.640838
 H     0.961154     4.450574     0.392423
 H    -0.961154    -4.450574    -0.392423
 H    -0.919447     1.200349     4.258990
 H     0.919447    -1.200349    -4.258990
 H     5.969101    -1.040523    -4.975603
 H    -5.969101     1.040523     4.975603
 H    -5.856526     3.909688    -3.458339
 H     5.856526    -3.909688     3.458339
 H     5.654878     5.133670     1.687576
 H    -5.654878    -5.133670    -1.687576
 H     4.386070    -0.508680    -5.562951
 H    -4.386070     0.508680     5.562951
 H    -4.271391     4.667560    -3.243507
 H     4.271391    -4.667560     3.243507
 H     4.026995     5.296515     2.365008
 H    -4.026995    -5.296515    -2.365008
 H     5.438939     0.621566    -4.686747
 H    -5.438939    -0.621566     4.686747
 H    -5.353907     4.453375    -1.852404
 H     5.353907    -4.453375     1.852404
 H     5.137408     4.062325     2.994804
 H    -5.137408    -4.062325    -2.994804
 H     6.441645    -1.307745    -2.536290
 H    -6.441645     1.307745     2.536290
 H    -6.368386     1.648577    -2.536098
 H     6.368386    -1.648577     2.536098
 H     6.322526     3.105495     0.367386
 H    -6.322526    -3.105495    -0.367386
 H     5.835698     0.322619    -2.175737
 H    -5.835698    -0.322619     2.175737
 H    -5.797596     2.113069    -0.919891
 H     5.797596    -2.113069     0.919891
 H     5.686267     1.992460     1.597492
 H    -5.686267    -1.992460    -1.597492
 H     5.165529    -1.078516    -1.327266
 H    -5.165529     1.078516     1.327266
 H    -5.121387     0.687339    -1.721394
 H     5.121387    -0.687339     1.721394
 H     5.124065     1.875427    -0.077013
 H    -5.124065    -1.875427     0.077013
 H     4.976390    -2.968074    -3.796915
 H    -4.976390     2.968074     3.796915
 H    -4.854450     1.946390    -4.564295
 H     4.854450    -1.946390     4.564295
 H     4.840351     4.896541    -0.620778
 H    -4.840351    -4.896541     0.620778
 H     3.679353    -2.765070    -2.608396
 H    -3.679353     2.765070     2.608396
 H    -3.590466     0.984863    -3.782404
 H     3.590466    -0.984863     3.782404
 H     3.589126     3.723774    -1.052758
 H    -3.589126    -3.723774     1.052758
 H     3.344785    -2.506800    -4.325798
 H    -3.344785     2.506800     4.325798
 H    -3.218513     2.609365    -4.374148
 H     3.218513    -2.609365     4.374148
 H     3.175607     5.123814    -0.052655
 H    -3.175607    -5.123814     0.052655
