   66
scf done: -2159.155375
Cl     2.888964     2.569584     0.593628
Cl     0.717438    -3.233975    -0.679931
 C     0.446819    -0.531938    -0.348028
 C    -1.008803    -0.246131     0.020699
 C    -0.483647     1.400693     0.070392
 C     0.914678     0.769847    -0.051127
 C     2.258260     1.022686     0.041170
 C     3.196589    -0.018117    -0.273615
 C     4.598850     0.197938    -0.270470
 C     5.481266    -0.814436    -0.573871
 C     5.003029    -2.102702    -0.890988
 C     3.649652    -2.353839    -0.898823
 C     2.709563    -1.335468    -0.598453
 C     1.297799    -1.578993    -0.572552
 C    -1.291211    -1.004076     1.356684
 C    -0.236090    -1.454911     2.170848
 C    -0.463601    -2.182713     3.336194
 C    -1.763016    -2.495502     3.732323
 C    -2.823340    -2.074981     2.934006
 C    -2.588322    -1.354039     1.762448
 C    -2.110692    -0.598908    -0.969448
 C    -1.912720    -1.545991    -1.980242
 C    -2.935708    -1.885279    -2.864991
 C    -4.189995    -1.285162    -2.758820
 C    -4.406979    -0.344886    -1.751844
 C    -3.380185    -0.011961    -0.868802
 C    -0.824552     2.211148     1.404310
 C    -2.333037     2.143686     1.727966
 C    -0.442464     3.714366     1.389401
 C    -0.071931     1.651509     2.637598
 C    -0.722778     2.209840    -1.326705
 C    -0.645986     1.330766    -2.606092
 C    -2.067068     2.962661    -1.429187
 C     0.421835     3.236712    -1.548406
 H     4.971537     1.185552    -0.029336
 H     6.549203    -0.617564    -0.569509
 H     5.701983    -2.898341    -1.130986
 H     3.281244    -3.343106    -1.141241
 H     0.787564    -1.219728     1.912693
 H     0.384994    -2.505405     3.932763
 H    -1.943645    -3.065529     4.639078
 H    -3.846194    -2.317555     3.208611
 H    -3.441062    -1.085939     1.155348
 H    -0.941964    -2.002570    -2.105299
 H    -2.744269    -2.617258    -3.644702
 H    -4.986311    -1.544925    -3.450297
 H    -5.375873     0.136305    -1.650786
 H    -3.570869     0.720146    -0.095265
 H    -2.669235     1.118517     1.882014
 H    -2.950782     2.607501     0.957147
 H    -2.518896     2.685037     2.662834
 H    -0.926261     4.293683     0.605015
 H    -0.763786     4.144285     2.344640
 H     0.636312     3.860279     1.319332
 H    -0.186522     2.357890     3.467263
 H     0.998903     1.541970     2.450360
 H    -0.462798     0.696529     2.974687
 H     0.159567     0.593661    -2.570497
 H    -1.576619     0.815890    -2.827646
 H    -0.437110     1.993741    -3.452896
 H    -2.920827     2.291220    -1.352093
 H    -2.118148     3.430098    -2.419618
 H    -2.183500     3.759973    -0.695383
 H     0.150614     3.868189    -2.401718
 H     0.622974     3.891965    -0.708556
 H     1.353658     2.729221    -1.808253
