   66
scf done: -2159.171152
Cl    -1.911258     2.980422    -1.111567
Cl    -1.910663    -2.980628     1.111763
 C    -0.711487    -0.659904     0.256391
 C     0.811981    -0.716241     0.447574
 C     0.811833     0.716465    -0.447777
 C    -0.711638     0.659740    -0.256728
 C    -1.880631     1.335690    -0.483504
 C    -3.132167     0.680766    -0.235208
 C    -4.379726     1.320223    -0.453625
 C    -5.569891     0.666423    -0.228504
 C    -5.569750    -0.667576     0.228248
 C    -4.379444    -1.321109     0.453399
 C    -3.132024    -0.681380     0.234992
 C    -1.880352    -1.336022     0.483317
 C     1.549685    -1.880976    -0.189419
 C     0.863471    -2.883579    -0.884195
 C     1.538944    -3.945187    -1.488726
 C     2.926649    -4.035182    -1.403926
 C     3.627825    -3.048431    -0.708346
 C     2.947493    -1.989496    -0.114159
 C     1.118953    -0.627566     2.043775
 C    -0.013828     0.091311     2.811648
 C     1.194735    -2.071308     2.596120
 C     2.424835     0.080575     2.479782
 C     1.549120     1.881415     0.189313
 C     0.862544     2.883431     0.884604
 C     1.537605     3.945078     1.489502
 C     2.925268     4.035739     1.404581
 C     3.626781     3.049651     0.708421
 C     2.946849     1.990667     0.113834
 C     1.118942     0.627681    -2.043889
 C    -0.013453    -0.091800    -2.811775
 C     1.194126     2.071382    -2.596416
 C     2.425122    -0.080022    -2.479814
 H    -4.383709     2.343305    -0.807955
 H    -6.509868     1.180878    -0.404507
 H    -6.509618    -1.182235     0.404233
 H    -4.383198    -2.344194     0.807721
 H    -0.214265    -2.838578    -0.964277
 H     0.972515    -4.701861    -2.024341
 H     3.455727    -4.860039    -1.872404
 H     4.710917    -3.096027    -0.636331
 H     3.522105    -1.221642     0.384846
 H    -0.951130    -0.469144     2.795742
 H     0.290074     0.195094     3.859336
 H    -0.204533     1.094370     2.426371
 H     2.120389    -2.572020     2.303010
 H     1.166622    -2.030061     3.691103
 H     0.360047    -2.687777     2.263058
 H     2.330380     1.164746     2.486953
 H     2.640629    -0.234872     3.507729
 H     3.297651    -0.177119     1.881131
 H    -0.215153     2.837943     0.964799
 H     0.970887     4.701267     2.025495
 H     3.454036     4.860601     1.873398
 H     4.709836     3.097796     0.636192
 H     3.521775     1.223427    -0.385753
 H    -0.203447    -1.095032    -2.426546
 H    -0.951126     0.468008    -2.795800
 H     0.290485    -0.195309    -3.859480
 H     0.359171     2.687533    -2.263401
 H     2.119562     2.572529    -2.303403
 H     1.165984     2.030022    -3.691386
 H     2.641058     0.235756    -3.507609
 H     3.297780     0.177616    -1.880899
 H     2.330875    -1.164217    -2.487304
