   66
scf done: -1140.941884
 N     1.345001    -0.284729     0.845331
 C     2.625847    -0.746797     0.367770
 C     0.830762     0.965661     0.503144
 C     2.698628    -1.582206    -0.758290
 C     3.961335    -2.003969    -1.196408
 H     4.017951    -2.644375    -2.074105
 C     3.794167    -0.408924     1.085659
 C     5.025240    -0.868347     0.620761
 H     5.924388    -0.607172     1.174201
 C     5.134138    -1.650641    -0.534469
 C     1.480075    -2.081273    -1.493554
 H     0.563765    -1.847270    -0.954150
 H     1.542160    -3.166712    -1.632094
 H     1.409634    -1.632988    -2.492423
 B     0.695729     1.357113    -1.165402
 H     1.160754     0.611858    -1.952881
 B     0.783021     2.306189     1.510552
 H     1.286733     2.175067     2.574061
 C     6.484326    -2.094647    -1.040799
 H     7.138622    -2.403815    -0.218157
 H     6.993684    -1.278903    -1.570061
 H     6.394026    -2.933479    -1.738015
 C     3.737382     0.415985     2.347592
 H     3.441484     1.448683     2.143184
 H     4.716486     0.435906     2.834034
 H     3.017543     0.016617     3.072754
 B     1.702731     2.292632    -0.007598
 H     2.877539     2.164932    -0.058098
 B     0.746812     3.133252    -1.231301
 H     1.287603     3.701684    -2.121689
 B     0.753200     3.725188     0.455417
 H     1.303150     4.724241     0.784727
 H     1.157211    -0.516530     1.813830
 N    -1.345057    -0.284629    -0.845270
 C    -2.625933    -0.746653    -0.367724
 C    -0.830710     0.965728    -0.503110
 C    -2.698730    -1.582144     0.758278
 C    -3.961440    -2.003916     1.196374
 H    -4.018062    -2.644384     2.074025
 C    -3.794249    -0.408782    -1.085628
 C    -5.025327    -0.868221    -0.620755
 H    -5.924467    -0.607046    -1.174206
 C    -5.134239    -1.650543     0.534451
 C    -1.480187    -2.081368     1.493452
 H    -0.563862    -1.847157     0.954165
 H    -1.542215    -3.166855     1.631652
 H    -1.409833    -1.633391     2.492464
 B    -0.695634     1.357203     1.165440
 H    -1.160726     0.612006     1.952930
 B    -0.782829     2.306241    -1.510536
 H    -1.286545     2.175154    -2.574046
 C    -6.484429    -2.094560     1.040765
 H    -7.138862    -2.403323     0.218082
 H    -6.993612    -1.278949     1.570402
 H    -6.394165    -2.933668     1.737654
 C    -3.737478     0.416102    -2.347577
 H    -3.441708     1.448836    -2.143170
 H    -4.716560     0.435909    -2.834070
 H    -3.017558     0.016799    -3.072692
 B    -1.702544     2.292793     0.007617
 H    -2.877364     2.165216     0.058117
 B    -0.746543     3.133343     1.231306
 H    -1.287279     3.701845     2.121683
 B    -0.752873     3.725252    -0.455422
 H    -1.302728     4.724352    -0.784748
 H    -1.157210    -0.516514    -1.813736
