   62
scf done: -1982.007989
 I     3.545642     1.535918    -0.306081
 I    -3.545903     1.535262     0.306483
 C     0.841934    -1.021210    -0.190555
 C    -0.841750    -1.021407     0.190422
 C    -0.694720     0.492731     0.114548
 C    -1.421974     1.647282     0.157227
 C    -0.723993     2.898523     0.066219
 C    -1.390549     4.149413     0.121615
 C    -0.702752     5.340423     0.060671
 C     0.701774     5.340560    -0.060130
 C     1.389800     4.149682    -0.121095
 C     0.723479     2.898666    -0.065749
 C     1.421693     1.647561    -0.156841
 C     0.694651     0.492875    -0.114232
 C     1.079256    -1.574227    -1.580306
 C     1.553678    -0.778754    -2.626928
 C     1.711443    -1.302970    -3.912079
 C     1.390722    -2.633414    -4.172972
 C     0.909581    -3.437866    -3.137365
 C     0.754861    -2.911370    -1.858780
 C     1.774980    -1.577247     0.876945
 C     1.832046    -0.950148     2.133236
 C     2.649235    -1.438256     3.147115
 C     3.447399    -2.562606     2.925772
 C     3.421833    -3.179434     1.676755
 C     2.597065    -2.689744     0.661785
 C    -1.774729    -1.577276    -0.877228
 C    -1.831864    -0.949869    -2.133375
 C    -2.649013    -1.437799    -3.147361
 C    -3.447080    -2.562279    -2.926287
 C    -3.421443    -3.179415    -1.677433
 C    -2.596709    -2.689897    -0.662345
 C    -1.078942    -1.574882     1.580012
 C    -0.754223    -2.912022     1.858122
 C    -0.908830    -3.438908     3.136561
 C    -1.390164    -2.634854     4.172389
 C    -1.711184    -1.304411     3.911861
 C    -1.553539    -0.779805     2.626854
 H    -2.470012     4.152907     0.220392
 H    -1.245336     6.279806     0.107717
 H     1.244177     6.280048    -0.107153
 H     2.469263     4.153382    -0.219854
 H     1.788206     0.263543    -2.448287
 H     2.079777    -0.662521    -4.708546
 H     1.506002    -3.039927    -5.173639
 H     0.639945    -4.472583    -3.328411
 H     0.347564    -3.537590    -1.072320
 H     1.219197    -0.077369     2.324770
 H     2.662191    -0.937977     4.111114
 H     4.087562    -2.945756     3.715364
 H     4.050156    -4.044120     1.481394
 H     2.608824    -3.175546    -0.305633
 H    -1.219089    -0.076996    -2.324707
 H    -2.662035    -0.937284    -4.111236
 H    -4.087217    -2.945269    -3.715978
 H    -4.049687    -4.044199    -1.482267
 H    -2.608412    -3.175973     0.304936
 H    -0.346763    -3.537929     1.071497
 H    -0.638976    -4.473619     3.327326
 H    -1.505343    -3.041670     5.172944
 H    -2.079666    -0.664264     4.708503
 H    -1.788326     0.262483     2.448493
