   62
scf done: -6534.163310
Br     1.751153     3.292303    -0.566764
Br     1.751312    -3.291926     0.567359
 C    -0.848697     0.828904    -0.245200
 C    -0.848584    -0.829064     0.244837
 C     0.665580    -0.683724     0.164832
 C     1.822868    -1.401059     0.265087
 C     3.073698    -0.714413     0.122138
 C     4.322169    -1.378466     0.229230
 C     5.511784    -0.695607     0.114953
 C     5.511726     0.696317    -0.113956
 C     4.322049     1.379041    -0.228420
 C     3.073640     0.714863    -0.121523
 C     1.822766     1.401373    -0.264671
 C     0.665509     0.683945    -0.164689
 C    -1.406416     0.983463    -1.644568
 C    -2.738516     0.625414    -1.905516
 C    -3.267026     0.708388    -3.189821
 C    -2.469994     1.150695    -4.248148
 C    -1.145633     1.507411    -4.003502
 C    -0.619343     1.422147    -2.712613
 C    -1.402911     1.822252     0.766975
 C    -0.764706     1.964864     2.010220
 C    -1.263395     2.825170     2.982312
 C    -2.409870     3.581039     2.730074
 C    -3.036789     3.472612     1.490550
 C    -2.535715     2.606040     0.517379
 C    -1.402120    -1.822710    -0.767381
 C    -0.763969    -1.964668    -2.010739
 C    -1.261866    -2.825560    -2.982715
 C    -2.407463    -3.582671    -2.730263
 C    -3.034357    -3.474822    -1.490681
 C    -2.534079    -2.607666    -0.517612
 C    -1.406712    -0.983533     1.644070
 C    -0.619702    -1.421140     2.712600
 C    -1.146332    -1.505962     4.003383
 C    -2.470967    -1.149830     4.247423
 C    -3.267963    -0.708689     3.188578
 C    -2.739126    -0.626207     1.904376
 H     4.323412    -2.446830     0.409256
 H     6.452188    -1.231334     0.203121
 H     6.452083     1.232159    -0.201947
 H     4.323219     2.447407    -0.408464
 H    -3.358171     0.246540    -1.100166
 H    -4.297153     0.412847    -3.366765
 H    -2.877805     1.209514    -5.253233
 H    -0.512278     1.849651    -4.817166
 H     0.416241     1.689914    -2.543868
 H     0.123647     1.383020     2.226077
 H    -0.754208     2.904711     3.938478
 H    -2.801950     4.253687     3.487684
 H    -3.918070     4.068779     1.269944
 H    -3.030179     2.552152    -0.444268
 H     0.123695    -1.381844    -2.226777
 H    -0.752727    -2.904613    -3.938949
 H    -2.798913    -4.255794    -3.487783
 H    -3.914958    -4.071937    -1.269930
 H    -3.028479    -2.554220     0.444094
 H     0.416100    -1.688389     2.544312
 H    -0.513041    -1.847396     4.817433
 H    -2.879033    -1.208226     5.252433
 H    -4.298318    -0.413625     3.365040
 H    -3.358797    -0.248286     1.098586
