   74
scf done: -1244.906684
 C    -0.623829    -0.030031    -0.122781
 C    -0.964340    -1.540876    -0.414086
 C     1.036976     0.187070     0.178725
 C    -2.394881    -1.738535    -0.969665
 C     1.204772     1.321081     1.227764
 C    -1.700824     0.383008     1.003893
 C     1.828961     0.594744    -1.125147
 C    -1.748282     1.891237     1.353281
 C    -2.448142     0.580350    -1.871159
 C     2.750291    -1.729249    -1.557786
 C    -1.019935     0.871298    -1.353828
 C    -3.162189     0.124052     0.443672
 C    -1.564163    -0.506262     2.256017
 C     3.275045     1.062425    -0.788154
 C     3.359098    -0.576343     1.068864
 C    -0.957136     2.381263    -1.028552
 C    -3.411526    -1.348267     0.116660
 C     1.900617    -1.032605     0.725588
 C    -3.464516     0.983959    -0.791034
 C     4.080424    -0.117722    -0.215776
 C     2.645727     1.744578     1.520820
 C     1.937339    -0.561534    -2.142254
 C     4.171227    -1.249540    -1.241645
 C     2.095343    -2.215726    -0.254968
 C    -1.838166    -1.986866     1.924293
 C     3.398775     0.549133     2.100400
 C    -1.957408     2.747071     0.084621
 C     3.286895     2.220351     0.213002
 C    -2.608971    -0.897022    -2.227360
 C    -3.366745     2.473561    -0.455278
 C    -0.866690    -2.451467     0.834117
 C    -3.262456    -2.177054     1.393634
 H    -0.352700     0.660588    -2.190655
 H     2.784496    -2.553358    -2.281859
 H     2.622828     2.567398     2.247676
 H     2.925714     0.227662     3.038528
 H    -1.879890    -1.181447    -2.999046
 H     0.133477    -2.502631     1.247216
 H    -4.480193     0.749507    -1.140960
 H    -2.606174     1.194854    -2.768969
 H     0.948605    -0.909691    -2.454404
 H    -1.225146     2.937974    -1.937488
 H     4.672205    -0.893273    -2.152336
 H     4.771412    -2.078804    -0.843292
 H    -3.844280     0.417581     1.255363
 H    -2.612091     2.042786     2.016305
 H    -4.124530     2.740809     0.293485
 H     4.318737     2.556652     0.382885
 H     0.051633     2.704393    -0.771960
 H     1.349166     1.445155    -1.609450
 H     2.729512     3.079167    -0.186235
 H    -3.608390    -1.080731    -2.644963
 H    -0.290495    -1.905581    -1.189369
 H     2.433823    -0.188088    -3.048730
 H     1.469695    -1.383518     1.667861
 H     3.736941     1.388994    -1.731080
 H    -3.447288    -3.241092     1.193016
 H    -4.005984    -1.851454     2.134138
 H    -0.565817    -0.408989     2.697044
 H    -2.509231    -2.803776    -1.215928
 H     4.440234     0.809137     2.334431
 H     0.742087     1.008277     2.167408
 H    -1.691570    -2.591821     2.828495
 H    -3.562492     3.081530    -1.349132
 H     0.681696     2.211088     0.896227
 H     2.755818    -2.949067     0.228443
 H     1.177325    -2.749448    -0.479417
 H    -0.889463     2.227095     1.926382
 H    -1.852014     3.809574     0.338883
 H    -4.430790    -1.457564    -0.281295
 H     3.874970    -1.457831     1.474413
 H    -1.123466    -3.475594     0.528559
 H    -2.277033    -0.160318     3.018284
 H     5.090918     0.227368     0.046258
