   28
scf done:  -442.868091
 C    -0.792279     0.951069    -0.057188
 N    -2.046704     1.555041    -0.078881
 B    -0.428041     0.024221     1.332021
 C    -0.824954    -0.907820    -0.045016
 N    -2.099337    -1.468072    -0.058599
 B     0.481426    -1.445142     0.862865
 B     1.343018    -0.006375     1.423426
 B     1.931746    -0.908440    -0.006804
 B     1.962296     0.856285    -0.018624
 B     0.532304     1.454263     0.843820
 B     0.556314     1.442164    -0.928692
 B    -0.390013     0.004703    -1.422593
 B     0.506459    -1.457759    -0.909372
 B     1.382988    -0.026287    -1.464901
 H     1.973232    -0.042887    -2.494057
 H     0.305160    -2.435113     1.491278
 H     0.346815    -2.456674    -1.527937
 H    -1.217776     0.044448     2.214183
 H    -1.153150     0.012488    -2.328062
 H     2.972724     1.478274    -0.008143
 H     0.432755     2.437326    -1.561391
 H     0.391263     2.458305     1.458652
 H     2.919742    -1.565293     0.012725
 H     1.904193    -0.009265     2.468824
 H    -2.305007    -1.995876    -0.898036
 H    -2.328187    -1.983674     0.782426
 H    -2.256893     2.090207     0.754807
 H    -2.233400     2.078630    -0.925403
