   50
scf done:  -981.210610
 B     5.738608     3.517043     3.604404
 B     4.203516     4.411337     3.622325
 B     3.593942     4.411309     5.288283
 B     5.743619     5.281858     3.590746
 B     4.411736     5.842375     4.643038
 C     4.443329     3.079400     4.654580
 C     2.716427     1.665199     4.022780
 H     2.081837     2.528868     3.790745
 N     3.911251     1.796737     4.459856
 C     2.119896     0.346664     3.804425
 C     0.805549     0.259991     3.324022
 H     0.249087     1.171634     3.120845
 C     0.216164    -0.984519     3.108335
 H    -0.802076    -1.045823     2.736169
 C     0.938459    -2.149228     3.372049
 H     0.481090    -3.120200     3.204677
 C     2.251440    -2.069207     3.851922
 H     2.809885    -2.978225     4.055775
 C     2.841485    -0.830075     4.067863
 H     3.857136    -0.741692     4.439063
 H     2.441687     4.245275     5.508252
 H     6.041054     2.731375     2.777997
 H     3.465314     4.245242     2.710676
 H     6.099314     5.861990     2.618842
 H     3.807552     6.839416     4.422000
 B     4.754903     3.517046     6.292780
 B     6.289993     4.411342     6.274856
 B     6.899567     4.411309     4.608899
 B     4.749890     5.281862     6.306434
 B     6.081772     5.842376     5.254140
 C     6.050182     3.079401     5.242606
 C     7.777085     1.665203     5.874411
 H     8.411675     2.528872     6.106444
 N     6.582262     1.796740     5.437334
 C     8.373618     0.346669     6.092767
 C     9.687964     0.259998     6.573171
 H    10.244425     1.171641     6.776347
 C    10.277350    -0.984512     6.788860
 H    11.295591    -1.045814     7.161026
 C     9.555056    -2.149222     6.525147
 H    10.012426    -3.120193     6.692520
 C     8.242075    -2.069202     6.045273
 H     7.683631    -2.978221     5.841421
 C     7.652029    -0.830072     5.829330
 H     6.636378    -0.741690     5.458130
 H     8.051823     4.245275     4.388930
 H     4.452457     2.731380     7.119189
 H     7.028195     4.245250     7.186507
 H     4.394194     5.861996     7.278335
 H     6.685956     6.839419     5.475175
