   72
scf done: -1219.575983
 N     1.600089     0.542988     0.250501
 N    -1.527452     0.492748     0.194138
 C     4.173944    -3.074292     0.352020
 H     3.961381    -4.099921     0.645815
 C     3.125965    -2.267000    -0.097206
 C    -3.370742    -0.945945    -0.530209
 C     3.393665    -0.937981    -0.475873
 C     0.988936     1.779417     0.205514
 C     2.262289    -0.044653    -0.927298
 H     2.634638     0.751000    -1.577714
 H     1.525215    -0.611420    -1.504838
 C     5.483006    -2.594353     0.440770
 B    -1.443812     3.079877    -0.680526
 C    -0.959101     1.745355     0.192718
 B     0.039273     2.168649    -1.148690
 C    -5.651671    -1.152854     0.255778
 H    -6.597690    -0.685157     0.520125
 C     4.700922    -0.425301    -0.366782
 C    -3.219864    -2.340686    -0.427783
 C     5.723103    -1.264592     0.085324
 H     6.731997    -0.866575     0.168285
 C    -2.215149    -0.078310    -0.975818
 H    -1.501411    -0.652775    -1.573198
 H    -2.574906     0.738110    -1.607872
 B     1.469706     3.138912    -0.646513
 B    -0.015091     2.132710     1.559799
 C    -4.599626    -0.345842    -0.180412
 B     0.005865     3.945677    -1.206428
 C    -4.299197    -3.114616     0.012698
 H    -4.177092    -4.192749     0.087846
 C    -5.522611    -2.541376     0.359839
 B    -1.472496     3.067288     1.092757
 B     1.439259     3.096528     1.125174
 C     6.609127    -3.490623     0.894738
 H     7.077941    -3.998218     0.041353
 H     6.251673    -4.267306     1.578836
 H     7.393209    -2.921171     1.404621
 C     1.720946    -2.819717    -0.153989
 H     1.663138    -3.794867     0.337990
 H     1.377023    -2.951480    -1.188131
 H     1.010578    -2.145936     0.336825
 B    -0.903237     4.504873     0.232190
 C    -1.919131    -3.023916    -0.782885
 H    -1.956335    -4.085887    -0.523635
 H    -1.071544    -2.579807    -0.252692
 H    -1.700059    -2.954919    -1.856070
 B     0.856634     4.531896     0.258757
 C    -4.799997     1.148533    -0.274822
 H    -5.801239     1.426953     0.065457
 H    -4.688156     1.509075    -1.304731
 H    -4.074046     1.700108     0.331556
 B    -0.035154     3.903294     1.678989
 C    -6.672931    -3.387116     0.848953
 H    -6.871482    -3.209527     1.913605
 H    -6.465969    -4.454321     0.723269
 H    -7.597067    -3.155282     0.306835
 C     5.015725     1.011982    -0.714082
 H     6.057231     1.247236    -0.477719
 H     4.380420     1.714924    -0.163290
 H     4.865178     1.216990    -1.781346
 H     0.054419     1.431843    -2.073359
 H    -2.472085     2.909196     1.711131
 H    -0.009457     1.346597     2.447245
 H     1.476836     5.543691     0.283917
 H    -2.416839     2.967242    -1.345884
 H     2.424169     2.962263     1.773238
 H    -1.555668     5.496539     0.230393
 H     0.002997     4.535225    -2.236486
 H     2.469538     3.046557    -1.275789
 H    -0.052242     4.457810     2.728281
 H     2.064073     0.344232     1.127250
 H    -1.857200     0.166384     1.091688
