   55
scf done: -1021.732372
 B    -2.292067    -0.056801    -1.463341
 H    -1.521720    -0.138783    -2.354082
 B    -3.088741     1.420259    -0.969311
 H    -2.925173     2.397702    -1.616694
 B    -3.005805     1.535136     0.814680
 H    -2.829602     2.587279     1.327108
 B    -2.195986     0.117420     1.476853
 H    -1.368351     0.157992     2.315626
 B    -3.060603    -1.336096     1.026026
 H    -2.898320    -2.321099     1.663269
 B    -3.105779    -1.446242    -0.761838
 H    -2.983042    -2.501413    -1.284028
 B    -4.025242    -0.039225    -1.383609
 H    -4.658427    -0.110906    -2.384325
 B    -3.924292     0.158165     1.500514
 H    -4.494358     0.248830     2.537014
 B    -4.509471    -0.831365     0.136953
 H    -5.513182    -1.459126     0.213410
 B    -4.488638     0.958611     0.011701
 H    -5.475439     1.617087     0.009859
 N    -0.374988     1.197791    -0.187919
 N    -0.401393    -1.175946     0.087451
 C    -1.744031     0.826004    -0.076110
 C    -1.769810    -0.780016     0.059300
 C     0.408564    -0.027887    -0.398249
 H     1.351358     0.030076     0.147992
 H     0.637673    -0.157842    -1.466651
 C    -0.070986    -2.446944    -0.552910
 H    -0.214938    -2.396018    -1.645726
 H    -0.771519    -3.196027    -0.168898
 C     1.353725    -2.846796    -0.238036
 C     1.824891    -2.795567     1.080139
 H     1.159520    -2.445456     1.864038
 C     3.132986    -3.173271     1.376265
 H     3.489028    -3.128334     2.401705
 C     3.985240    -3.609848     0.358242
 H     5.005064    -3.903633     0.589611
 C     3.522604    -3.661580    -0.956384
 H     4.180791    -3.993732    -1.754141
 C     2.213238    -3.276400    -1.251982
 H     1.856772    -3.307895    -2.278663
 C     0.158323     2.142316     0.800137
 H     0.255116     1.685296     1.796488
 H    -0.570950     2.953107     0.887642
 C     1.494154     2.690447     0.351096
 C     2.572518     2.742481     1.238233
 H     2.450901     2.366803     2.251351
 C     3.800607     3.269704     0.832970
 H     4.631017     3.303543     1.532439
 C     3.961047     3.741864    -0.469346
 H     4.916706     4.147627    -0.788688
 C     2.888807     3.685413    -1.364178
 H     3.009404     4.048874    -2.380852
 C     1.663141     3.163118    -0.956616
 H     0.829359     3.105595    -1.650088
