   54
scf done:  -983.639834
 B     1.180522    -2.000127    -0.000000
 B     0.791500    -2.979559     1.456809
 B    -0.974537    -3.145246     1.453899
 B    -1.525722    -2.253090    -0.000000
 B     1.421621    -3.757419    -0.000000
 B     0.038779    -4.482389     0.880409
 B    -1.450453    -4.029573    -0.000000
 C    -0.211362    -1.737584     0.965246
 N    -0.369584    -0.493593     1.557066
 C     0.673511     0.042310     2.434776
 H     1.609167     0.053907     1.865404
 H     0.841582    -0.605200     3.307184
 C     0.322428     1.438359     2.896120
 C     0.610017     1.838667     4.204913
 H     1.059143     1.129130     4.895607
 C     0.325325     3.137273     4.628951
 H     0.554176     3.434073     5.648535
 C    -0.262246     4.047695     3.749378
 H    -0.489504     5.057103     4.079990
 C    -0.561727     3.652132     2.444176
 H    -1.021418     4.354105     1.753808
 C    -0.269540     2.356362     2.021247
 H    -0.503608     2.039820     1.011131
 H     2.025692    -1.173577    -0.000000
 H    -2.434983    -4.692019    -0.000000
 H     1.420191    -2.800162     2.444360
 H    -2.490702    -1.564030    -0.000000
 H     2.508349    -4.233726    -0.000000
 H    -1.620865    -3.060547     2.444680
 H     0.135615    -5.478605     1.518025
 H    -1.303631    -0.351581     1.925148
 B     0.791500    -2.979559    -1.456809
 B    -0.974537    -3.145246    -1.453899
 B     0.038779    -4.482389    -0.880409
 C    -0.211362    -1.737584    -0.965246
 N    -0.369584    -0.493593    -1.557066
 C     0.673511     0.042310    -2.434776
 H     1.609167     0.053907    -1.865404
 H     0.841582    -0.605200    -3.307184
 C     0.322428     1.438359    -2.896120
 C     0.610017     1.838667    -4.204913
 H     1.059143     1.129130    -4.895607
 C     0.325325     3.137273    -4.628951
 H     0.554176     3.434073    -5.648535
 C    -0.262246     4.047695    -3.749378
 H    -0.489504     5.057103    -4.079990
 C    -0.561727     3.652132    -2.444176
 H    -1.021418     4.354105    -1.753808
 C    -0.269540     2.356362    -2.021247
 H    -0.503608     2.039820    -1.011131
 H     1.420191    -2.800162    -2.444360
 H    -1.620865    -3.060547    -2.444680
 H     0.135615    -5.478605    -1.518025
 H    -1.303631    -0.351581    -1.925148
