   66
FINAL HEAT OF FORMATION = -1536.387775
 C     8.033248    12.042694    17.373129
 C     7.929517    11.492568    18.643281
 C     7.511839    11.914140    21.105567
 H     8.216578    11.393456    16.515699
 H     8.029469    10.416542    18.788431
 H     7.598240    10.855178    21.350495
 C     7.675404    14.290156    18.223917
 C     7.904382    13.446159    17.150488
 C     7.677961    12.334777    19.758533
 C     7.228102    12.848012    22.094921
 C     7.098736    14.239285    21.800037
 C     7.275600    14.650228    20.500257
 C     7.559883    13.718105    19.502903
 C     7.529076    15.804968    18.267214
 C     6.398834    16.318078    17.368318
 C     5.670670    15.452197    16.536998
 C     4.537033    15.875310    15.837322
 C     4.079589    17.191424    15.983063
 C     4.798888    18.066536    16.793374
 C     5.976106    17.664162    17.457260
 C     6.665740    18.686807    18.221067
 C     7.992293    18.780749    18.440514
 C     9.021425    17.874458    17.965296
 C     8.833910    16.482844    17.807200
 C     7.167759    16.049975    19.907098
 C     5.685845    16.403301    20.044491
 C     4.820022    15.428609    19.503690
 C     3.436063    15.583078    19.460660
 C     2.859331    16.737682    20.005949
 C     3.692249    17.686891    20.587188
 C     5.103617    17.545988    20.622817
 C     5.798617    18.627968    21.297159
 C     7.102220    18.813691    21.585793
 C     8.273833    18.005617    21.303690
 C     8.307684    16.800686    20.583161
 H     7.997651    13.831939    16.136543
 H     7.092177    12.511017    23.122926
 H     6.859240    14.953519    22.584676
 H     5.945486    14.405528    16.473846
 H     3.993508    15.166074    15.212196
 H     3.174482    17.527173    15.476957
 H     4.458395    19.094225    16.921601
 H     6.039083    19.509479    18.569324
 H     8.353450    19.674655    18.951536
 H     5.239202    14.517086    19.089879
 H     2.820131    14.809694    19.002227
 H     1.779754    16.886601    19.988685
 H     3.253573    18.576482    21.040612
 H     5.125097    19.410727    21.657291
 H     7.330578    19.724639    22.145796
 H     9.571265    15.175923    19.944638
 C    10.275233    18.443173    17.666493
 C    11.316991    17.680744    17.143461
 C    11.112162    16.311354    16.927735
 C     9.890661    15.728348    17.272527
 C     9.490054    18.513703    21.827058
 C    10.707658    17.864854    21.652371
 C    10.731890    16.646903    20.958378
 C     9.541409    16.131434    20.457500
 H    10.410704    19.510781    17.839388
 H    12.273530    18.145394    16.905711
 H    11.907297    15.688805    16.516733
 H     9.784960    14.656292    17.158877
 H     9.455147    19.448184    22.388037
 H    11.622640    18.292768    22.060951
 H    11.662569    16.102006    20.804727
