   70
FINAL HEAT OF FORMATION = -1613.627631
 H     6.267526     6.060549    23.032369
 C     7.943201     4.649423    25.406366
 C     8.162436     6.029213    25.515169
 C     7.252447     6.843067    24.825687
 C     7.430597     8.216630    24.907693
 C     6.715196     4.439660    24.514211
 C     6.247290     5.918472    24.123871
 H     6.756988     8.904671    24.396737
 H     6.966613     3.855442    23.615099
 H     5.916618     3.900306    25.047175
 H     5.217577     6.105122    24.465871
 H    12.721311     7.695136    23.100702
 C    10.105001     5.721100    26.935895
 C     9.901044     4.344756    26.847949
 C     8.810722     3.799498    26.075826
 C     8.526366     8.754073    25.676150
 C     9.399233     7.906963    26.336160
 C     9.202608     6.539379    26.252259
 C    11.155026     6.588101    27.626792
 C    11.130724     6.393926    29.148509
 C    10.278612     5.444158    29.733784
 C    10.131410     5.340021    31.118829
 C    10.824384     6.221730    31.959486
 C    11.681580     7.162391    31.391833
 C    11.876699     7.240164    29.997522
 C    12.829283     8.226932    29.524017
 C    13.591860     8.173466    28.413158
 C    13.649215     7.116436    27.420356
 C    14.875569     6.952238    26.743820
 C    15.060143     5.947122    25.796758
 C    13.994077     5.085238    25.506180
 C    12.760058     5.271381    26.134245
 C    12.555225     6.288614    27.080700
 C    10.634389     8.180714    27.176977
 C    10.089448     8.903188    28.405172
 C     9.005025     8.230331    29.006443
 C     8.387589     8.682865    30.168251
 C    12.631966     8.344906    23.970500
 C    11.756108     8.006010    24.997720
 C    11.618051     8.776327    26.172228
 H    10.567744     3.649011    27.356862
 H     8.689086     2.716406    26.030402
 H     9.676878     4.802133    29.099348
 H     9.453661     4.593174    31.533448
 H    10.695787     6.175938    33.040640
 H    12.228958     7.856551    32.029372
 H    12.993553     9.070558    30.196610
 H    14.314591     8.978753    28.270449
 H    15.692355     7.633691    26.981570
 H    16.018378     5.838223    25.289170
 H    14.107765     4.290457    24.768220
 H    11.929847     4.641204    25.834776
 H     8.633461     7.317636    28.551031
 H     7.573559     8.106466    30.606790
 H    11.159977     7.106772    24.881495
 H    14.078381     9.815027    23.285559
 C     8.830337     9.876281    30.755614
 C     9.865833    10.577479    30.147622
 C    10.511375    10.116839    28.971425
 C    11.553241    10.991085    28.465761
 C    12.309479    10.931360    27.351448
 C    12.352831     9.970247    26.265012
 C    13.228435    10.316213    25.203597
 C    13.387225     9.520584    24.075027
 H     8.662358     9.832930    25.726890
 H     8.365773    10.257082    31.664845
 H    10.200219    11.521019    30.580059
 H    11.725158    11.865780    29.099008
 H    13.003427    11.765286    27.214575
 H    13.791576    11.246416    25.286283
