  212
scf done: -3345.655191
 C     0.813477     0.001417     0.007192
 C    -0.813477    -0.001417    -0.007192
 C     1.426962     0.329364    -1.382957
 C    -1.426962    -0.329364     1.382957
 C    -1.411854     1.370489    -0.426375
 C     1.411854    -1.370489     0.426375
 C     1.388751     1.052050     0.995581
 C    -1.388751    -1.052050    -0.995581
 C     0.989713     1.091726     2.339411
 C    -0.989713    -1.091726    -2.339411
 C    -1.018924    -1.450715     2.129412
 C     1.018924     1.450715    -2.129412
 C     1.021007    -2.567943    -0.190097
 C    -1.021007     2.567943     0.190097
 C     2.440917     1.884003     0.600192
 C    -2.440917    -1.884003    -0.600192
 C    -2.522381     0.401503     1.843298
 C     2.522381    -0.401503    -1.843298
 C     2.491233    -1.413836     1.315730
 C    -2.491233     1.413836    -1.315730
 C     1.571137     1.977311     3.252687
 C    -1.571137    -1.977311    -3.252687
 C    -1.660893    -1.807050     3.316345
 C     1.660893     1.807050    -3.316345
 C     1.648635    -3.783551     0.105461
 C    -1.648635     3.783551    -0.105461
 C     3.075243     2.752403     1.500067
 C    -3.075243    -2.752403    -1.500067
 C    -3.215880     0.043918     3.011955
 C     3.215880    -0.043918    -3.011955
 C     3.170334    -2.607642     1.597186
 C    -3.170334     2.607642    -1.597186
 C     2.616179     2.811481     2.821513
 C    -2.616179    -2.811481    -2.821513
 C    -2.771919    -1.056040     3.745942
 C     2.771919     1.056040    -3.745942
 C     2.731875    -3.793337     0.997565
 C    -2.731875     3.793337    -0.997565
 H     0.217858     0.421184     2.681064
 H    -0.217858    -0.421184    -2.681064
 H    -0.193271    -2.044638     1.775791
 H     0.193271     2.044638    -1.775791
 H     0.218873    -2.553642    -0.911157
 H    -0.218873     2.553642     0.911157
 H     2.792975     1.839316    -0.421827
 H    -2.792975    -1.839316     0.421827
 H    -2.865970     1.254122     1.273400
 H     2.865970    -1.254122    -1.273400
 H     2.830172    -0.495834     1.777453
 H    -2.830172     0.495834    -1.777453
 C     1.085489     1.945429     4.707236
 C    -1.085489    -1.945429    -4.707236
 C    -1.206740    -3.020146     4.135824
 C     1.206740     3.020146    -4.135824
 C     1.127240    -5.055852    -0.571563
 C    -1.127240     5.055852     0.571563
 C     4.286550     3.547926     1.002633
 C    -4.286550    -3.547926    -1.002633
 C    -4.444904     0.868958     3.401041
 C     4.444904    -0.868958    -3.401041
 C     4.381324    -2.549153     2.532586
 C    -4.381324     2.549153    -2.532586
 H     3.084040     3.490430     3.523174
 H    -3.084040    -3.490430    -3.523174
 H    -3.289982    -1.345318     4.653916
 H     3.289982     1.345318    -4.653916
 H     3.235931    -4.725323     1.218778
 H    -3.235931     4.725323    -1.218778
 C     5.090553    -0.369555    -4.713645
 C    -5.090553     0.369555     4.713645
 C    -5.015252     3.941161    -2.756967
 C     5.015252    -3.941161     2.756967
 C     4.850510     4.492964     2.088412
 C    -4.850510    -4.492964    -2.088412
 C     5.496089    -0.767898    -2.259708
 C    -5.496089     0.767898     2.259708
 C    -5.453429     1.611535    -1.908473
 C     5.453429    -1.611535     1.908473
 C     5.398407     2.538974     0.594608
 C    -5.398407    -2.538974    -0.594608
 C     4.035548    -2.356027    -3.586312
 C    -4.035548     2.356027     3.586312
 C    -3.945275     1.976649    -3.908161
 C     3.945275    -1.976649     3.908161
 C     3.900299     4.399629    -0.237270
 C    -3.900299    -4.399629     0.237270
 C     0.989707     2.605919    -5.616303
 C    -0.989707    -2.605919     5.616303
 C    -1.890086     6.318996     0.112090
 C     1.890086    -6.318996    -0.112090
 C     1.673551     3.106026     5.542764
 C    -1.673551    -3.106026    -5.542764
 C    -0.119491     3.611314    -3.601542
 C     0.119491    -3.611314     3.601542
 C     0.377423     5.230701     0.231415
 C    -0.377423    -5.230701    -0.231415
 C    -0.463462     2.037969     4.759098
 C     0.463462    -2.037969    -4.759098
 C     2.304192     4.116297    -4.063295
 C    -2.304192    -4.116297     4.063295
 C    -1.275802     4.915063     2.110320
 C     1.275802    -4.915063    -2.110320
 C     1.524822     0.597694     5.342422
 C    -1.524822    -0.597694    -5.342422
 H     0.641837     3.475295    -6.197708
 H    -0.641837    -3.475295     6.197708
 H    -1.464963     7.202154     0.614839
 H     1.464963    -7.202154    -0.614839
 H     1.259637     3.065590     6.562773
 H    -1.259637    -3.065590    -6.562773
 H     1.920232     2.238622    -6.074035
 H    -1.920232    -2.238622     6.074035
 H    -2.957894     6.258145     0.375686
 H     2.957894    -6.258145    -0.375686
 H     2.769534     3.031228     5.619890
 H    -2.769534    -3.031228    -5.619890
 H     0.232952     1.810664    -5.680903
 H    -0.232952    -1.810664     5.680903
 H    -1.795326     6.465174    -0.975633
 H     1.795326    -6.465174     0.975633
 H     1.409577     4.080119     5.100825
 H    -1.409577    -4.080119    -5.100825
 H     1.996340     4.998188    -4.649007
 H    -1.996340    -4.998188     4.649007
 H    -0.905409     5.826351     2.608181
 H     0.905409    -5.826351    -2.608181
 H     1.160928     0.533617     6.381071
 H    -1.160928    -0.533617    -6.381071
 H     2.464578     4.421560    -3.018336
 H    -2.464578    -4.421560     3.018336
 H    -0.695964     4.058085     2.475940
 H     0.695964    -4.058085    -2.475940
 H     1.113391    -0.246775     4.772210
 H    -1.113391     0.246775    -4.772210
 H     3.258974     3.744063    -4.466072
 H    -3.258974    -3.744063     4.466072
 H    -2.331791     4.765301     2.381692
 H     2.331791    -4.765301    -2.381692
 H     2.622034     0.515009     5.345225
 H    -2.622034    -0.515009    -5.345225
 H    -0.429191     4.448345    -4.247893
 H     0.429191    -4.448345     4.247893
 H     0.765163     6.144552     0.711180
 H    -0.765163    -6.144552    -0.711180
 H    -0.797539     2.022158     5.809588
 H     0.797539    -2.022158    -5.809588
 H    -0.920765     2.858964    -3.600726
 H     0.920765    -2.858964     3.600726
 H     0.516052     5.316728    -0.856898
 H    -0.516052    -5.316728     0.856898
 H    -0.804343     2.973330     4.294865
 H     0.804343    -2.973330    -4.294865
 H    -0.010224     3.994936    -2.578655
 H     0.010224    -3.994936     2.578655
 H     0.962703     4.374140     0.589288
 H    -0.962703    -4.374140    -0.589288
 H    -0.940665     1.199568     4.235769
 H     0.940665    -1.199568    -4.235769
 H     5.964052    -0.996954    -4.951829
 H    -5.964052     0.996954     4.951829
 H    -5.876395     3.843487    -3.436894
 H     5.876395    -3.843487     3.436894
 H     5.707213     5.050036     1.677197
 H    -5.707213    -5.050036    -1.677197
 H     4.380604    -0.437592    -5.553194
 H    -4.380604     0.437592     5.553194
 H    -4.293339     4.635058    -3.215976
 H     4.293339    -4.635058     3.215976
 H     4.089696     5.221689     2.410555
 H    -4.089696    -5.221689    -2.410555
 H     5.434729     0.672168    -4.615905
 H    -5.434729    -0.672168     4.615905
 H    -5.375455     4.371419    -1.809183
 H     5.375455    -4.371419     1.809183
 H     5.201298     3.927272     2.965846
 H    -5.201298    -3.927272    -2.965846
 H     6.397154    -1.344498    -2.526076
 H    -6.397154     1.344498     2.526076
 H    -6.337970     1.562247    -2.564629
 H     6.337970    -1.562247     2.564629
 H     6.293161     3.083468     0.250594
 H    -6.293161    -3.083468    -0.250594
 H     5.781917     0.283323    -2.097981
 H    -5.781917    -0.283323     2.097981
 H    -5.763725     1.992416    -0.923064
 H     5.763725    -1.992416     0.923064
 H     5.674464     1.909037     1.454716
 H    -5.674464    -1.909037    -1.454716
 H     5.093376    -1.164063    -1.316412
 H    -5.093376     1.164063     1.316412
 H    -5.059411     0.593393    -1.775434
 H     5.059411    -0.593393     1.775434
 H     5.053497     1.881848    -0.217207
 H    -5.053497    -1.881848     0.217207
 H     4.920391    -2.956392    -3.854202
 H    -4.920391     2.956392     3.854202
 H    -4.812424     1.927089    -4.586979
 H     4.812424    -1.927089     4.586979
 H     4.790125     4.928273    -0.616163
 H    -4.790125    -4.928273     0.616163
 H     3.601884    -2.764659    -2.662989
 H    -3.601884     2.764659     2.662989
 H    -3.528765     0.966603    -3.799085
 H     3.528765    -0.966603     3.799085
 H     3.502482     3.769043    -1.044326
 H    -3.502482    -3.769043     1.044326
 H     3.286387    -2.446511    -4.386783
 H    -3.286387     2.446511     4.386783
 H    -3.175631     2.619888    -4.361632
 H     3.175631    -2.619888     4.361632
 H     3.134900     5.141400     0.032121
 H    -3.134900    -5.141400    -0.032121
