   66
FINAL HEAT OF FORMATION = -2155.830439
Cl     9.469068     8.874225     3.600104
Cl     4.385789    10.617482     0.004929
 C     7.107081    10.702282     0.747959
 C     7.706892    11.984131     0.200722
 C     9.160167    11.334024     0.839669
 C     8.225694    10.337640     1.538012
 C     8.124328     9.285343     2.404401
 C     6.952608     8.462996     2.425271
 C     6.855017     7.284499     3.213675
 C     5.725079     6.487929     3.171492
 C     4.626553     6.844191     2.347368
 C     4.680507     7.994085     1.583431
 C     5.834488     8.822612     1.592332
 C     5.931616    10.008022     0.804320
 C     6.974540    13.148069     0.919007
 C     6.140291    12.894967     2.024925
 C     5.386949    13.911947     2.617877
 C     5.442692    15.217933     2.114915
 C     6.252696    15.481862     1.004290
 C     6.995916    14.455221     0.408036
 C     7.670623    12.264129    -1.285647
 C     6.680459    11.724944    -2.116851
 C     6.652242    12.015082    -3.485270
 C     7.613847    12.862608    -4.051690
 C     8.593541    13.426826    -3.224913
 C     8.612714    13.131515    -1.855902
 C     9.999720    12.258823     1.786284
 C    10.345394    13.606641     1.105465
 C    11.326151    11.627238     2.298629
 C     9.188479    12.579589     3.075831
 C     9.947826    10.425061    -0.250794
 C     9.046637     9.762895    -1.349285
 C    11.068319    11.175535    -1.021350
 C    10.591905     9.188661     0.457813
 H     7.699030     7.011982     3.840947
 H     5.680415     5.578654     3.770845
 H     3.740674     6.209899     2.313214
 H     3.844700     8.280373     0.950033
 H     6.071556    11.892956     2.435983
 H     4.746927    13.674332     3.468071
 H     4.850034    16.011598     2.569301
 H     6.293066    16.485095     0.579332
 H     7.561467    14.677544    -0.490713
 H     5.924452    11.070853    -1.703192
 H     5.874918    11.573351    -4.109831
 H     7.596746    13.085198    -5.118657
 H     9.346962    14.096155    -3.642030
 H     9.378132    13.572306    -1.228568
 H     9.432978    14.150095     0.836596
 H    10.974798    13.467194     0.218369
 H    10.904123    14.228640     1.823143
 H    12.020343    11.363364     1.495565
 H    11.822139    12.374603     2.938726
 H    11.123349    10.743218     2.913587
 H     9.836677    13.141170     3.766971
 H     8.874359    11.655256     3.580456
 H     8.307355    13.188318     2.865467
 H     8.105414     9.366820    -0.944627
 H     8.824308    10.440127    -2.176523
 H     9.613957     8.912197    -1.759764
 H    10.661260    11.988739    -1.629147
 H    11.540815    10.455875    -1.709409
 H    11.848714    11.566770    -0.361081
 H    11.302981     8.727170    -0.245336
 H    11.128494     9.427121     1.375304
 H     9.821631     8.440120     0.688514
