   66
FINAL HEAT OF FORMATION = -1138.219146
 N     5.862805     7.814729     3.987657
 C     5.672958     7.155526     2.718916
 C     4.927155     8.705232     4.515329
 C     5.144943     5.856598     2.662277
 C     4.933832     5.266878     1.404992
 H     4.509142     4.262963     1.360906
 C     6.055253     7.826083     1.537798
 C     5.840705     7.203752     0.304740
 H     6.129333     7.724462    -0.609082
 C     5.261967     5.927295     0.219171
 C     4.820380     5.048189     3.899234
 H     5.070309     5.610133     4.800650
 H     5.394300     4.106915     3.894363
 H     3.749533     4.786798     3.920627
 B     3.252790     8.129643     4.652781
 H     2.983472     7.096093     4.153671
 B     5.079168    10.385052     4.600051
 H     6.071156    10.842675     4.143760
 C     5.005030     5.290194    -1.134670
 H     5.910488     5.320441    -1.762256
 H     4.206910     5.831638    -1.670608
 H     4.692836     4.241208    -1.025820
 C     6.704478     9.192325     1.591100
 H     6.008891     9.943571     1.988436
 H     7.019163     9.505478     0.585748
 H     7.591388     9.187123     2.244772
 B     3.809069     9.547530     3.636722
 H     3.815404     9.414702     2.462470
 B     2.292635     9.632580     4.558258
 H     1.263549     9.676486     3.967890
 B     3.430382    11.017965     4.593808
 H     3.199581    12.046781     4.048078
 H     6.813316     7.886277     4.362148
 N     4.256648     6.888614     6.764568
 C     4.908222     6.727242     8.046043
 C     3.923481     8.126654     6.215474
 C     6.294512     6.522653     8.120010
 C     6.882273     6.353879     9.384172
 H     7.960221     6.200407     9.447145
 C     4.107401     6.699877     9.204824
 C     4.724627     6.520798    10.445995
 H     4.108657     6.499449    11.345499
 C     6.114186     6.358313    10.552336
 C     7.162872     6.439469     6.883308
 H     6.552899     6.539346     5.983476
 H     7.687078     5.470240     6.852213
 H     7.926209     7.234805     6.890565
 B     5.229817     9.322174     6.066556
 H     6.261998     9.069720     6.578396
 B     2.375340     8.795316     6.097131
 H     1.493183     8.153144     6.555674
 C     6.763753     6.196581    11.913258
 H     6.127605     5.598900    12.584292
 H     6.918564     7.182867    12.383919
 H     7.743054     5.702742    11.827649
 C     2.601046     6.830558     9.111048
 H     2.313732     7.820245     8.731499
 H     2.140489     6.688655    10.098694
 H     2.178097     6.082163     8.421625
 B     3.707181     9.527436     7.062448
 H     3.805433     9.480617     8.239268
 B     4.368531    10.884815     6.124104
 H     4.815087    11.820132     6.703457
 B     2.608172    10.546286     6.075872
 H     1.809979    11.249927     6.602326
 H     3.756131     6.082865     6.377734
