   62
FINAL HEAT OF FORMATION = -1978.681139
 I     3.095616     1.876122     6.597523
 I     6.951722     2.674376     0.680803
 C     2.964786     0.670227     3.113343
 C     3.754085     1.056917     1.634860
 C     4.745452     1.803992     2.551132
 C     5.905972     2.516686     2.520144
 C     6.355104     3.114031     3.752937
 C     7.534616     3.895944     3.809141
 C     7.935616     4.513259     4.978666
 C     7.160603     4.366312     6.155824
 C     6.007406     3.602624     6.137387
 C     5.565500     2.954397     4.957695
 C     4.369703     2.149559     4.929885
 C     4.028005     1.565338     3.748362
 C     3.111988    -0.795915     3.398432
 C     3.892087    -1.265293     4.457305
 C     4.073946    -2.641003     4.660026
 C     3.477195    -3.564874     3.794022
 C     2.692253    -3.101539     2.727034
 C     2.514849    -1.729754     2.534981
 C     1.556488     1.194115     3.258691
 C     1.317535     2.572706     3.137602
 C     0.021091     3.087122     3.213637
 C    -1.066164     2.226580     3.427977
 C    -0.834764     0.854290     3.584310
 C     0.467760     0.344434     3.505451
 C     4.338434    -0.124169     0.888333
 C     5.343095    -0.894710     1.493486
 C     5.834175    -2.051470     0.882431
 C     5.336318    -2.454957    -0.365006
 C     4.366688    -1.669256    -0.999843
 C     3.879697    -0.510424    -0.381805
 C     2.843045     1.890916     0.767852
 C     1.609105     1.343541     0.371385
 C     0.711185     2.074863    -0.407414
 C     1.033186     3.381450    -0.805132
 C     2.259680     3.933883    -0.417487
 C     3.156462     3.190098     0.365405
 H     8.119501     4.011153     2.898482
 H     8.844289     5.114580     4.991171
 H     7.472015     4.855567     7.078217
 H     5.412331     3.488146     7.041016
 H     4.373011    -0.553186     5.121837
 H     4.688722    -2.986621     5.491580
 H     3.625460    -4.634683     3.942189
 H     2.234527    -3.806914     2.032973
 H     1.933980    -1.385065     1.683859
 H     2.150432     3.246107     2.958522
 H    -0.140379     4.158716     3.098080
 H    -2.080109     2.623215     3.484325
 H    -1.666436     0.175006     3.776421
 H     0.632249    -0.720084     3.647777
 H     5.727123    -0.599445     2.465260
 H     6.597873    -2.643277     1.386774
 H     5.708274    -3.362686    -0.840646
 H     3.986855    -1.952250    -1.982543
 H     3.139299     0.091321    -0.899967
 H     1.332820     0.345697     0.699682
 H    -0.245561     1.631883    -0.685517
 H     0.332036     3.961194    -1.405592
 H     2.523374     4.947761    -0.719550
 H     4.102790     3.631048     0.666274
