   58
FINAL HEAT OF FORMATION = -1976.298701
 I    -1.617802    -0.302706     5.102182
 I     1.013814    -3.978937    -0.364682
 C     0.900245    -3.059359     4.532029
 C     1.088047    -4.118870     3.286522
 C     0.575990    -2.978506     2.438459
 C     0.268182    -2.696009     1.145665
 C    -0.647486    -1.613405     0.908008
 C    -1.073185    -1.282794    -0.404132
 C    -2.054639    -0.336020    -0.628892
 C    -2.646711     0.336960     0.467935
 C    -2.236311     0.057779     1.760444
 C    -1.237175    -0.912004     2.033692
 C    -0.830979    -1.240443     3.378577
 C     0.080121    -2.240163     3.537288
 C     0.468035    -3.521496     5.898044
 C    -0.652686    -4.255147     6.268823
 C    -0.834255    -4.574131     7.625737
 C     0.100815    -4.156712     8.587650
 C     1.232171    -3.415271     8.208866
 C     1.411204    -3.100339     6.864896
 C     2.455543    -2.316332     6.195589
 C     3.548960    -1.615372     6.697783
 C     4.333823    -0.859688     5.811315
 C     4.015343    -0.797393     4.442098
 C     2.911118    -1.505867     3.940482
 C     2.164340    -2.274221     4.821226
 C     0.030154    -5.214461     3.267713
 C    -1.352731    -5.106195     3.150828
 C    -2.128004    -6.280186     3.123339
 C    -1.513608    -7.542985     3.196202
 C    -0.115933    -7.646301     3.256773
 C     0.645799    -6.478410     3.271132
 C     2.090580    -6.287134     3.182594
 C     3.100878    -7.237093     3.086061
 C     4.418615    -6.798047     2.887995
 C     4.695356    -5.425330     2.777155
 C     3.667092    -4.471199     2.888058
 C     2.367101    -4.902511     3.109737
 H    -0.629012    -1.817311    -1.242290
 H    -2.377728    -0.117937    -1.647011
 H    -3.430963     1.073682     0.294201
 H    -2.696729     0.578156     2.597413
 H    -1.372612    -4.587722     5.526573
 H    -1.709263    -5.149532     7.929357
 H    -0.053926    -4.408303     9.637086
 H     1.953130    -3.087221     8.956131
 H     3.778105    -1.633891     7.762191
 H     5.186333    -0.296986     6.191809
 H     4.615111    -0.183666     3.769708
 H     2.626199    -1.441805     2.890287
 H    -1.829826    -4.131252     3.065233
 H    -3.212358    -6.209616     3.032098
 H    -2.123735    -8.446805     3.177715
 H     0.363431    -8.625015     3.266477
 H     2.869265    -8.300356     3.147844
 H     5.227429    -7.524718     2.807979
 H     5.718180    -5.090715     2.604114
 H     3.893845    -3.414590     2.803687
