   62
FINAL HEAT OF FORMATION = -6527.650885
Br     6.263756     2.554087     6.018176
Br     0.183746    -0.257107     6.536669
 C     4.064782     0.806301     3.635744
 C     2.498641     0.162082     3.768876
 C     2.624556     0.591436     5.241181
 C     1.918713     0.571140     6.407468
 C     2.511159     1.207084     7.544527
 C     1.820046     1.273437     8.780579
 C     2.372149     1.922708     9.866025
 C     3.652757     2.529114     9.752429
 C     4.349491     2.471555     8.559794
 C     3.806230     1.816955     7.424804
 C     4.518050     1.764425     6.179203
 C     3.914444     1.134896     5.129014
 C     5.094067    -0.230209     3.281338
 C     4.888921    -1.068355     2.176023
 C     5.822675    -2.053269     1.841594
 C     6.983649    -2.209916     2.613241
 C     7.206338    -1.355689     3.700885
 C     6.267834    -0.367531     4.028392
 C     4.163927     2.057792     2.789116
 C     3.321735     3.148648     3.053418
 C     3.363846     4.292165     2.251843
 C     4.258547     4.363579     1.172615
 C     5.112225     3.283770     0.912951
 C     5.065053     2.138696     1.719245
 C     2.378188    -1.345369     3.610511
 C     3.065749    -2.196363     4.487595
 C     3.009221    -3.585301     4.338628
 C     2.250311    -4.153838     3.305023
 C     1.538701    -3.314645     2.439046
 C     1.596551    -1.923560     2.595650
 C     1.476102     0.842313     2.884685
 C     0.189242     1.142760     3.346461
 C    -0.776401     1.663111     2.472141
 C    -0.472918     1.874936     1.121291
 C     0.805716     1.547923     0.647205
 C     1.765636     1.034270     1.523716
 H     0.839603     0.802825     8.819895
 H     1.823862     1.973177    10.806626
 H     4.085115     3.043602    10.610115
 H     5.330098     2.926022     8.440999
 H     3.979850    -0.976701     1.588172
 H     5.633922    -2.707351     0.989946
 H     7.706991    -2.987073     2.365867
 H     8.112812    -1.454204     4.298547
 H     6.470855     0.335345     4.832704
 H     2.606060     3.087089     3.870339
 H     2.689220     5.122235     2.461916
 H     4.290348     5.253196     0.543411
 H     5.819163     3.328922     0.083641
 H     5.728620     1.302376     1.513179
 H     3.667377    -1.764555     5.283014
 H     3.564833    -4.224082     5.025427
 H     2.209452    -5.236302     3.181314
 H     0.931201    -3.738921     1.638385
 H     1.028107    -1.291012     1.920001
 H    -0.079164     0.908211     4.373344
 H    -1.774210     1.889772     2.848936
 H    -1.223746     2.280793     0.442810
 H     1.060518     1.696573    -0.402673
 H     2.752076     0.791132     1.141181
