   54
FINAL HEAT OF FORMATION = -1304.608810
 C     9.150721     5.484286    10.793938
 C     7.710957     6.212752    11.447735
 C     7.550153     4.313193     9.218348
 C     6.429650     4.871045     9.716896
 C     9.128180     3.989030    10.959580
 C     9.820479     3.253684    11.917030
 H    10.470542     3.762349    12.626961
 C     9.660120     1.856340    11.965018
 H    10.204231     1.276865    12.711136
 C     8.800334     1.204061    11.068986
 H     8.675233     0.122151    11.120201
 C     8.088043     1.945982    10.111657
 H     7.395450     1.462934     9.422789
 C     8.262871     3.323879    10.064034
 C     9.352138     5.845296     9.345510
 C    10.256746     6.778843     8.850682
 H    10.914441     7.311986     9.535538
 C    10.301234     7.031741     7.467041
 H    11.011859     7.759831     7.075273
 C     9.433989     6.363317     6.590201
 H     9.469475     6.574514     5.521143
 C     8.509563     5.429207     7.088819
 H     7.811560     4.916066     6.427829
 C     8.482410     5.176946     8.454986
 C     6.770743     5.186034    12.038956
 C     6.634555     4.887292    13.390719
 H     7.237068     5.418121    14.126098
 C     5.726438     3.889678    13.790514
 H     5.615977     3.656639    14.849823
 C     4.969411     3.190337    12.839344
 H     4.269159     2.418938    13.160479
 C     5.121385     3.472768    11.470367
 H     4.561540     2.922573    10.714643
 C     6.017962     4.462303    11.085761
 C     6.980272     7.057077    10.426169
 C     7.033531     8.443398    10.335003
 H     7.637865     9.008687    11.043090
 C     6.314204     9.097191     9.317916
 H     6.352386    10.184479     9.246737
 C     5.556670     8.362280     8.394348
 H     5.004890     8.880188     7.609633
 C     5.517375     6.958310     8.469726
 H     4.954515     6.369359     7.746216
 C     6.227672     6.322255     9.480344
 C     9.849316     6.299805    11.854134
 C    11.110721     6.539403    12.368763
 H    12.005708     6.073897    11.957903
 C    11.171942     7.420825    13.469697
 H    12.138630     7.646174    13.921578
 C    10.009193     8.013012    14.002113
 H    10.102196     8.685268    14.855818
 C     8.731604     7.751500    13.459585
 H     7.833762     8.205292    13.876875
 C     8.694132     6.884521    12.380016
