   74
FINAL HEAT OF FORMATION = -1242.006277
 C     0.833498     5.542102     9.040803
 C     1.610529     5.611319     7.672692
 C     0.868528     3.993492     9.682707
 C     1.844240     7.064318     7.184570
 C    -0.473417     3.744089    10.433408
 C    -0.575912     6.232132     8.712933
 C     2.054437     3.808291    10.707665
 C    -1.499827     6.488979     9.935756
 C     1.725624     7.939176     9.521084
 C     3.567114     2.597107     9.055276
 C     1.492119     6.516632    10.088710
 C    -0.330925     7.697732     8.168785
 C    -1.317913     5.476007     7.586118
 C     1.921871     2.472381    11.499250
 C     0.918988     1.397986     9.492070
 C     0.627635     6.675945    11.368316
 C     0.482306     7.715446     6.870229
 C     1.051889     2.750707     8.708926
 C     0.363836     8.589676     9.211180
 C     2.054838     1.276053    10.534645
 C    -0.559387     2.416545    11.204341
 C     3.440260     3.804866    10.012791
 C     3.437312     1.289208     9.860834
 C     2.435179     2.642866     8.004067
 C    -0.507741     5.511592     6.266602
 C    -0.434513     1.258446    10.203170
 C    -0.749340     7.298058    11.026461
 C     0.578164     2.379753    12.243225
 C     2.589655     7.880020     8.252103
 C    -0.494427     8.718768    10.480904
 C     0.880283     4.888667     6.505557
 C    -0.298719     6.959378     5.783374
 H     2.481459     6.139759    10.367285
 H     4.544801     2.630590     8.545440
 H    -1.536181     2.371947    11.716102
 H    -1.259580     1.305191     9.471306
 H     3.561365     7.406678     8.477848
 H     0.765844     3.821474     6.674245
 H     0.525697     9.588669     8.768724
 H     2.246060     8.528571    10.296680
 H     3.608543     4.738956     9.462683
 H     1.157511     7.356228    12.058512
 H     4.229916     1.223989    10.626265
 H     3.543407     0.419004     9.190462
 H    -1.332573     8.111809     7.955456
 H    -2.346093     7.101198     9.576461
 H    -1.449776     9.215864    10.240523
 H     0.540043     1.446792    12.831631
 H     0.507474     5.728733    11.900863
 H     2.033685     4.602555    11.459036
 H     0.470095     3.223478    12.946717
 H     2.791505     8.900118     7.881561
 H     2.602583     5.175318     7.818517
 H     4.224510     3.740304    10.787571
 H     0.238118     2.754094     7.971556
 H     2.749767     2.440699    12.229906
 H     0.258158     6.958771     4.830648
 H    -1.266657     7.460012     5.607796
 H    -1.499033     4.430933     7.876068
 H     2.452575     7.015528     6.264279
 H    -0.492922     0.281856    10.714079
 H    -1.293835     3.771492     9.706515
 H    -1.043506     4.931692     5.495745
 H     0.026602     9.334568    11.234128
 H    -0.638869     4.539196    11.156193
 H     2.446455     1.703949     7.422915
 H     2.621147     3.445961     7.292700
 H    -1.943355     5.578117    10.337066
 H    -1.367576     7.348742    11.938824
 H     0.639033     8.763322     6.558135
 H     1.023751     0.588376     8.748783
 H     1.493363     5.004819     5.594397
 H    -2.303602     5.949218     7.429457
 H     1.924410     0.335995    11.099171
