   23
FINAL HEAT OF FORMATION =  -738.857062
 C     7.918904     5.720519     9.853102
 C     8.098087     7.014334    10.336347
 C     7.051031     7.941081    10.240347
 C     5.835217     7.552699     9.656655
 C     5.685035     6.254666     9.183040
 N     6.722553     5.363511     9.288924
 C     6.529552     3.992584     8.773016
 C     7.561461     2.814652     8.888643
 C     5.382490     2.996970     9.193646
 C     6.283468     3.596618     7.266929
 C     6.286325     2.247830     8.115478
 I     6.025743     0.285579     7.386097
 H     8.678200     4.944409     9.893615
 H     9.052443     7.285124    10.785029
 H     7.178619     8.955610    10.617308
 H     5.002842     8.249296     9.568822
 H     4.776060     5.877509     8.721256
 H     7.728754     2.399609     9.888993
 H     8.475386     2.893422     8.288944
 H     4.365105     3.242260     8.868798
 H     5.426509     2.604732    10.215497
 H     7.126141     3.736524     6.580954
 H     5.319876     3.881364     6.829460
