   28
FINAL HEAT OF FORMATION =  -441.815852
 B     0.376920     6.641771     5.249584
 H     0.869829     6.074762     6.168910
 B    -2.035806     7.618922     3.997582
 H    -3.210879     7.728214     3.896069
 B    -1.243770     6.169268     4.698377
 H    -1.847305     5.236362     5.109359
 B    -0.988309     8.072186     2.578662
 H    -1.434484     8.438988     1.545489
 B     0.224531     5.875409     3.657698
 H     0.565593     4.787359     3.340022
 B     0.570862     8.409248     4.976435
 H     1.197038     9.110796     5.700392
 B     1.405212     7.234596     3.933849
 H     2.564368     7.014141     3.826853
 B     0.611095     8.674526     3.214102
 H     1.198255     9.496090     2.594437
 B    -1.007388     7.772889     5.440009
 H    -1.494811     8.020832     6.493201
 B    -0.896907     8.971944     4.103635
 H    -1.310621    10.080834     4.196714
 C     0.486021     7.151597     2.528456
 C    -1.300698     6.442971     3.046577
 N     0.911608     6.769042     1.268445
 N    -1.899075     5.641205     2.090112
 H    -1.800037     4.627653     2.136963
 H    -2.526826     6.050001     1.398811
 H     0.748262     7.376260     0.465973
 H     1.470422     5.924636     1.150583
