   72
FINAL HEAT OF FORMATION = -1216.663455
 N    10.559541     9.116762     2.326664
 N     8.618446     6.711811     1.434601
 C    12.408819    11.810589    -0.686121
 H    12.663016    11.672564    -1.738082
 C    11.375964    11.049083    -0.127141
 C     7.053234     6.238038    -0.385124
 C    11.046306    11.224285     1.228459
 C    10.028993     8.367223     3.357425
 C     9.953336    10.379251     1.840320
 H     9.488705    10.888459     2.693388
 H     9.163486    10.162329     1.106326
 C    13.125487    12.737429     0.081549
 B     7.688516     6.703192     4.007282
 C     8.819761     6.838285     2.793926
 B     8.325646     8.347775     3.535425
 C     6.182091     4.086798    -1.096971
 H     5.740686     3.121924    -0.843170
 C    11.780281    12.119285     2.025524
 C     7.312855     6.564471    -1.729036
 C    12.805684    12.873309     1.439204
 H    13.371495    13.571567     2.056836
 C     7.406755     7.196838     0.731342
 H     7.571254     8.212953     0.346980
 H     6.598314     7.242069     1.472568
 B     9.466744     8.909371     4.841477
 B    10.444565     6.672105     3.324403
 C     6.483522     4.985908    -0.069264
 B     8.054078     7.928506     5.238477
 C     6.998113     5.641064    -2.737917
 H     7.202480     5.901335    -3.777288
 C     6.434047     4.396699    -2.440862
 B     9.094107     5.593352     3.895993
 B    10.876604     7.811938     4.685865
 C    14.213261    13.581650    -0.556093
 H    13.774953    14.474196    -1.035874
 H    14.750050    13.012765    -1.331091
 H    14.941752    13.923339     0.194193
 C    10.630514    10.034295    -0.977524
 H    11.179034     9.829449    -1.908355
 H     9.629141    10.407485    -1.251829
 H    10.499375     9.087054    -0.432780
 B     8.588970     6.227267     5.472812
 C     7.932222     7.893807    -2.124075
 H     8.134126     7.913353    -3.204897
 H     8.882029     8.065328    -1.599152
 H     7.259890     8.737021    -1.893645
 B     9.657791     7.540193     5.956760
 C     6.181974     4.600558     1.364610
 H     5.838509     3.557872     1.420133
 H     5.389057     5.240409     1.786932
 H     7.068294     4.713101     2.001866
 B    10.329256     6.158204     5.023894
 C     6.112669     3.394470    -3.535187
 H     6.783478     2.520644    -3.471097
 H     6.231208     3.844423    -4.531882
 H     5.077183     3.028904    -3.440609
 C    11.480744    12.255244     3.506127
 H    12.250078    12.862841     4.003273
 H    11.447840    11.267977     3.991454
 H    10.504940    12.742666     3.672792
 H     7.675328     9.092901     2.892944
 H     9.022959     4.489003     3.473212
 H    11.246287     6.328839     2.523512
 H     9.924928     7.739040     7.096192
 H     6.582168     6.409694     3.709964
 H    11.998933     8.177718     4.792265
 H     8.088966     5.502627     6.268991
 H     7.164401     8.402346     5.865900
 H     9.555839    10.068592     5.067500
 H    11.091166     5.378586     5.494744
 H    11.499734     8.885362     1.997037
 H     9.307520     6.188309     0.889424
