   50
FINAL HEAT OF FORMATION =  -978.830579
 B     5.756401     3.651140     3.586532
 B     4.194041     4.536737     3.612930
 B     3.574369     4.531458     5.295306
 B     5.737263     5.416264     3.593850
 B     4.395006     5.968846     4.647026
 C     4.443747     3.215003     4.656071
 C     2.770865     1.669353     4.025557
 H     2.071205     2.470551     3.751672
 N     3.959501     1.904791     4.476903
 C     2.317325     0.287502     3.869268
 C     1.030364     0.017087     3.379674
 H     0.366759     0.840371     3.111867
 C     0.596098    -1.306657     3.235634
 H    -0.404553    -1.513064     2.855700
 C     1.450033    -2.363902     3.581967
 H     1.113334    -3.394934     3.471277
 C     2.741081    -2.093938     4.072550
 H     3.404137    -2.916570     4.341609
 C     3.172647    -0.775849     4.215514
 H     4.162103    -0.525459     4.591938
 H     2.423038     4.365794     5.517370
 H     6.064858     2.864742     2.765551
 H     3.461895     4.376158     2.696062
 H     6.088658     6.004259     2.624689
 H     3.791109     6.966177     4.428033
 B     4.747973     3.641525     6.323054
 B     6.294757     4.555345     6.297199
 B     6.914103     4.561686     4.614040
 B     4.735061     5.406173     6.316345
 B     6.067048     5.983716     5.263107
 C     6.070756     3.229293     5.254127
 C     7.774304     1.689358     5.846138
 H     8.493926     2.486363     6.077605
 N     6.570721     1.928004     5.438482
 C     8.207269     0.300897     6.009872
 C     9.508034     0.005263     6.444234
 H    10.205429     0.815178     6.661926
 C     9.910443    -1.327637     6.598619
 H    10.921526    -1.555218     6.936152
 C     9.010612    -2.366668     6.318880
 H     9.322559    -3.404315     6.439445
 C     7.705619    -2.070780     5.882856
 H     7.007139    -2.879420     5.665812
 C     7.305711    -0.744478     5.728763
 H     6.307137    -0.471480     5.393400
 H     8.068415     4.420071     4.390740
 H     4.452590     2.848962     7.142932
 H     7.030313     4.406967     7.213363
 H     4.372767     5.986926     7.285938
 H     6.652304     6.992010     5.482122
