   55
FINAL HEAT OF FORMATION = -1019.286537
 B     0.221174     1.169804    13.082271
 H    -0.884801     1.561584    13.205534
 B     1.364841     0.892855    14.385661
 H     0.998386     0.955656    15.509938
 B     2.978864     1.643092    13.969980
 H     3.608478     2.139279    14.840894
 B     2.954352     2.403699    12.375215
 H     3.363001     3.486680    12.151320
 B     2.475898     1.220249    11.165834
 H     2.716372     1.434516    10.026653
 B     0.852527     0.501510    11.580877
 H     0.101414     0.260884    10.698916
 B     1.023280    -0.362039    13.147351
 H     0.378936    -1.327221    13.398300
 B     3.598265     0.803017    12.502303
 H     4.761711     0.650864    12.319733
 B     2.362921    -0.366095    11.974216
 H     2.664974    -1.359039    11.400058
 B     2.685252    -0.106559    13.735742
 H     3.226580    -0.912309    14.417465
 N     1.009419     3.644009    13.762353
 N     0.603620     3.328102    11.477450
 C     1.507726     2.358253    13.485688
 C     1.238924     2.138762    11.930623
 C     0.269411     4.227551    12.624479
 H     0.609718     5.257081    12.432478
 H    -0.823797     4.228720    12.801490
 C    -0.349513     3.252831    10.364802
 H    -1.339050     2.892412    10.707246
 H     0.053913     2.522523     9.648222
 C    -0.483172     4.610350     9.703491
 C     0.659084     5.398008     9.498303
 H     1.618996     5.026013     9.853696
 C     0.552916     6.638147     8.858314
 H     1.444625     7.245294     8.700249
 C    -0.699002     7.099381     8.419145
 H    -0.782958     8.065528     7.921702
 C    -1.841339     6.313480     8.626119
 H    -2.817360     6.666230     8.292077
 C    -1.731123     5.072667     9.269605
 H    -2.621686     4.465122     9.437297
 C     1.227509     4.365672    15.009693
 H     1.732672     5.326753    14.807443
 H     1.904677     3.749513    15.619604
 C    -0.078473     4.611131    15.750204
 C    -0.317243     5.826976    16.401442
 H     0.435498     6.616174    16.367148
 C    -1.521525     6.039002    17.088155
 H    -1.699953     6.990214    17.590073
 C    -2.496522     5.031933    17.121502
 H    -3.434993     5.195665    17.651112
 C    -2.260868     3.813740    16.464862
 H    -3.014706     3.026033    16.484135
 C    -1.056880     3.606756    15.781887
 H    -0.869072     2.669345    15.264055
