   70
scf done: -1616.787356
 H    -6.105426    -0.884146    -1.792396
 C    -4.388537    -0.001274     0.799120
 C    -3.476124    -0.000581    -0.285888
 C    -4.115606    -0.000034    -1.552090
 C    -3.319153     0.000703    -2.689946
 C    -5.811683    -0.001108     0.240258
 C    -5.629041    -0.000458    -1.333680
 H    -3.754034     0.001164    -3.693926
 H    -6.380376    -0.884855     0.577719
 H    -6.380351     0.882397     0.578411
 H    -6.105886     0.883314    -1.791751
 H    -0.304119    -4.586549    -1.161685
 C    -1.544508    -0.000952     1.209427
 C    -2.455497    -0.001694     2.275720
 C    -3.874281    -0.001871     2.089934
 C    -1.895380     0.000839    -2.545434
 C    -1.255379     0.000292    -1.299935
 C    -2.065395    -0.000419    -0.122233
 C    -0.046082    -0.000509     1.382271
 C     0.533527     1.316033     1.673223
 C    -0.349773     2.411545     1.925353
 C     0.092901     3.720669     2.127741
 C     1.461979     4.021404     2.044604
 C     2.356801     2.978346     1.794465
 C     1.940980     1.634608     1.624163
 C     3.006400     0.680224     1.374878
 C     3.006917    -0.678871     1.374803
 C     1.942211    -1.634138     1.623781
 C     2.359071    -2.977605     1.793734
 C     1.465036    -4.021470     2.043277
 C     0.095685    -3.721867     2.126159
 C    -0.347987    -2.413036     1.924179
 C     0.534496    -1.316702     1.672725
 C     0.255772     0.000340    -1.201891
 C     0.851375     1.328570    -1.397813
 C    -0.013140     2.455422    -1.222799
 C     0.413037     3.780237    -1.327900
 C     0.413745    -3.779470    -1.329301
 C    -0.012780    -2.454769    -1.224055
 C     0.851588    -1.327683    -1.398289
 H    -2.060014    -0.002094     3.295482
 H    -4.527627    -0.002437     2.967597
 H    -1.419612     2.221525     1.962948
 H    -0.638913     4.510052     2.322033
 H     1.824832     5.044468     2.172239
 H     3.426728     3.192583     1.718209
 H     3.977999     1.148259     1.183506
 H     3.978894    -1.146137     1.183424
 H     3.429192    -3.190942     1.717621
 H     1.828659    -5.044290     2.170658
 H    -0.635538    -4.511930     2.319922
 H    -1.417987    -2.223874     1.961569
 H    -1.058648     2.275631    -0.986764
 H    -0.304883     4.587127    -1.159633
 H    -1.058456    -2.275299    -0.988491
 H     2.107865    -5.096946    -1.713750
 C     1.754136     4.067226    -1.626669
 C     2.631961     2.998182    -1.808474
 C     2.230942     1.639941    -1.696656
 C     3.295126     0.681375    -1.910249
 C     3.295329    -0.679843    -1.910074
 C     2.231354    -1.638693    -1.696707
 C     2.632731    -2.996811    -1.808546
 C     1.755061    -4.066100    -1.627368
 H    -1.275192     0.001401    -3.446007
 H     2.106632     5.098179    -1.713058
 H     3.681389     3.198415    -2.044658
 H     4.267654     1.145862    -2.109115
 H     4.268013    -1.144086    -2.108768
 H     3.682317    -3.196780    -2.044257
