  212
scf done: -3351.671285
 C     0.837440    -0.001565     0.010935
 C    -0.837440     0.001565    -0.010935
 C     1.461442     0.328915    -1.393340
 C    -1.461442    -0.328915     1.393340
 C    -1.431493     1.394147    -0.430999
 C     1.431493    -1.394147     0.430999
 C     1.414644     1.060537     1.011874
 C    -1.414644    -1.060537    -1.011874
 C     1.021077     1.101732     2.367293
 C    -1.021077    -1.101732    -2.367293
 C    -1.057349    -1.453784     2.152228
 C     1.057349     1.453784    -2.152228
 C     1.054498    -2.592545    -0.211644
 C    -1.054498     2.592545     0.211644
 C     2.462830     1.915850     0.624397
 C    -2.462830    -1.915850    -0.624397
 C    -2.568893     0.396258     1.860993
 C     2.568893    -0.396258    -1.860993
 C     2.503624    -1.466558     1.340916
 C    -2.503624     1.466558    -1.340916
 C     1.580730     2.005786     3.288536
 C    -1.580730    -2.005786    -3.288536
 C    -1.691680    -1.813237     3.351596
 C     1.691680     1.813237    -3.351596
 C     1.671554    -3.825694     0.070336
 C    -1.671554     3.825694    -0.070336
 C     3.087740     2.804458     1.523654
 C    -3.087740    -2.804458    -1.523654
 C    -3.261846     0.048234     3.041861
 C     3.261846    -0.048234    -3.041861
 C     3.179614    -2.672083     1.621405
 C    -3.179614     2.672083    -1.621405
 C     2.614708     2.860726     2.847711
 C    -2.614708    -2.860726    -2.847711
 C    -2.804949    -1.052095     3.781568
 C     2.804949     1.052095    -3.781568
 C     2.740827    -3.849816     0.989628
 C    -2.740827     3.849816    -0.989628
 H     0.266568     0.410603     2.719043
 H    -0.266568    -0.410603    -2.719043
 H    -0.233128    -2.054067     1.794623
 H     0.233128     2.054067    -1.794623
 H     0.271660    -2.571008    -0.958495
 H    -0.271660     2.571008     0.958495
 H     2.831943     1.876723    -0.395187
 H    -2.831943    -1.876723     0.395187
 H    -2.933039     1.243006     1.288977
 H     2.933039    -1.243006    -1.288977
 H     2.850353    -0.559056     1.825394
 H    -2.850353     0.559056    -1.825394
 C     1.101600     1.965841     4.759393
 C    -1.101600    -1.965841    -4.759393
 C    -1.226394    -3.031235     4.180777
 C     1.226394     3.031235    -4.180777
 C     1.150670    -5.096041    -0.640417
 C    -1.150670     5.096041     0.640417
 C     4.312763     3.606833     1.028124
 C    -4.312763    -3.606833    -1.028124
 C    -4.505466     0.875757     3.431982
 C     4.505466    -0.875757    -3.431982
 C     4.393389    -2.631792     2.576069
 C    -4.393389     2.631792    -2.576069
 H     3.071499     3.554802     3.549886
 H    -3.071499    -3.554802    -3.549886
 H    -3.317734    -1.337490     4.700045
 H     3.317734     1.337490    -4.700045
 H     3.240336    -4.791406     1.204888
 H    -3.240336     4.791406    -1.204888
 C     5.116264    -0.420837    -4.779334
 C    -5.116264     0.420837     4.779334
 C    -5.005962     4.033827    -2.811860
 C     5.005962    -4.033827     2.811860
 C     4.859183     4.574016     2.105910
 C    -4.859183    -4.574016    -2.105910
 C     5.579921    -0.706227    -2.316508
 C    -5.579921     0.706227     2.316508
 C    -5.486427     1.713914    -1.951284
 C     5.486427    -1.713914     1.951284
 C     5.435220     2.589913     0.659270
 C    -5.435220    -2.589913    -0.659270
 C     4.120142    -2.378980    -3.548628
 C    -4.120142     2.378980     3.548628
 C    -3.958823     2.048241    -3.950081
 C     3.958823    -2.048241     3.950081
 C     3.946739     4.438761    -0.234380
 C    -3.946739    -4.438761     0.234380
 C     0.981387     2.600188    -5.655614
 C    -0.981387    -2.600188     5.655614
 C    -1.967740     6.357293     0.270040
 C     1.967740    -6.357293    -0.270040
 C     1.642192     3.160578     5.583068
 C    -1.642192    -3.160578    -5.583068
 C    -0.086921     3.642119    -3.633733
 C     0.086921    -3.642119     3.633733
 C     0.332691     5.324485     0.230882
 C    -0.332691    -5.324485    -0.230882
 C    -0.451769     1.987001     4.831741
 C     0.451769    -1.987001    -4.831741
 C     2.335209     4.122135    -4.138580
 C    -2.335209    -4.122135     4.138580
 C    -1.217529     4.898939     2.181775
 C     1.217529    -4.898939    -2.181775
 C     1.613262     0.642905     5.400097
 C    -1.613262    -0.642905    -5.400097
 H     0.642304     3.464377    -6.252439
 H    -0.642304    -3.464377     6.252439
 H    -1.559674     7.233609     0.800512
 H     1.559674    -7.233609    -0.800512
 H     1.239414     3.118963     6.608733
 H    -1.239414    -3.118963    -6.608733
 H     1.894385     2.204597    -6.128381
 H    -1.894385    -2.204597     6.128381
 H    -3.027980     6.254849     0.556575
 H     3.027980    -6.254849    -0.556575
 H     2.742045     3.145763     5.658949
 H    -2.742045    -3.145763    -5.658949
 H     0.206776     1.818374    -5.711934
 H    -0.206776    -1.818374     5.711934
 H    -1.921874     6.570143    -0.811009
 H     1.921874    -6.570143     0.811009
 H     1.340371     4.123957     5.138951
 H    -1.340371    -4.123957    -5.138951
 H     2.042465     4.995518    -4.747230
 H    -2.042465    -4.995518     4.747230
 H    -0.846094     5.801059     2.698584
 H     0.846094    -5.801059    -2.698584
 H     1.270057     0.558933     6.446206
 H    -1.270057    -0.558933    -6.446206
 H     2.504154     4.465261    -3.104293
 H    -2.504154    -4.465261     3.104293
 H    -0.598123     4.049202     2.504749
 H     0.598123    -4.049202    -2.504749
 H     1.240741    -0.233198     4.846015
 H    -1.240741     0.233198    -4.846015
 H     3.292937     3.740065    -4.528078
 H    -3.292937    -3.740065     4.528078
 H    -2.252797     4.713683     2.512749
 H     2.252797    -4.713683    -2.512749
 H     2.715158     0.603325     5.394831
 H    -2.715158    -0.603325    -5.394831
 H    -0.405161     4.479464    -4.277363
 H     0.405161    -4.479464     4.277363
 H     0.740178     6.215221     0.741009
 H    -0.740178    -6.215221    -0.741009
 H    -0.777883     1.941740     5.885438
 H     0.777883    -1.941740    -5.885438
 H    -0.902239     2.902575    -3.609480
 H     0.902239    -2.902575     3.609480
 H     0.422061     5.481641    -0.857091
 H    -0.422061    -5.481641     0.857091
 H    -0.856122     2.910350     4.388272
 H     0.856122    -2.910350    -4.388272
 H     0.034204     4.034849    -2.612877
 H    -0.034204    -4.034849     2.612877
 H     0.958387     4.461942     0.501560
 H    -0.958387    -4.461942    -0.501560
 H    -0.906512     1.135130     4.307475
 H     0.906512    -1.135130    -4.307475
 H     5.989346    -1.047753    -5.025608
 H    -5.989346     1.047753     5.025608
 H    -5.859903     3.955532    -3.505023
 H     5.859903    -3.955532     3.505023
 H     5.724028     5.128744     1.705764
 H    -5.724028    -5.128744    -1.705764
 H     4.390774    -0.514557    -5.604778
 H    -4.390774     0.514557     5.604778
 H    -4.272988     4.726607    -3.258074
 H     4.272988    -4.726607     3.258074
 H     4.097925     5.311405     2.411119
 H    -4.097925    -5.311405    -2.411119
 H     5.458819     0.626660    -4.739311
 H    -5.458819    -0.626660     4.739311
 H    -5.376468     4.481020    -1.874416
 H     5.376468    -4.481020     1.874416
 H     5.196796     4.033634     3.005797
 H    -5.196796    -4.033634    -3.005797
 H     6.485380    -1.289436    -2.558934
 H    -6.485380     1.289436     2.558934
 H    -6.371275     1.663496    -2.609576
 H     6.371275    -1.663496     2.609576
 H     6.339662     3.120625     0.313829
 H    -6.339662    -3.120625    -0.313829
 H     5.869699     0.353143    -2.212007
 H    -5.869699    -0.353143     2.212007
 H    -5.808344     2.102682    -0.970368
 H     5.808344    -2.102682     0.970368
 H     5.708695     1.974857     1.533409
 H    -5.708695    -1.974857    -1.533409
 H     5.204644    -1.049486    -1.339251
 H    -5.204644     1.049486     1.339251
 H    -5.115710     0.687239    -1.800586
 H     5.115710    -0.687239     1.800586
 H     5.112798     1.907366    -0.143412
 H    -5.112798    -1.907366     0.143412
 H     5.009899    -2.983835    -3.795392
 H    -5.009899     2.983835     3.795392
 H    -4.820353     2.002854    -4.638802
 H     4.820353    -2.002854     4.638802
 H     4.841794     4.956035    -0.620770
 H    -4.841794    -4.956035     0.620770
 H     3.698124    -2.765324    -2.607940
 H    -3.698124     2.765324     2.607940
 H    -3.553529     1.030637    -3.848663
 H     3.553529    -1.030637     3.848663
 H     3.549510     3.805526    -1.042803
 H    -3.549510    -3.805526     1.042803
 H     3.368989    -2.530240    -4.340825
 H    -3.368989     2.530240     4.340825
 H    -3.180179     2.676304    -4.413793
 H     3.180179    -2.676304     4.413793
 H     3.186530     5.199465     0.003886
 H    -3.186530    -5.199465    -0.003886
