   66
scf done: -2158.508620
Cl     2.919381     2.581566     0.612443
Cl     0.702221    -3.258238    -0.698531
 C     0.444975    -0.532489    -0.352055
 C    -1.019481    -0.253575     0.021463
 C    -0.476499     1.423269     0.082253
 C     0.921268     0.774825    -0.046362
 C     2.277091     1.021068     0.042639
 C     3.219035    -0.024989    -0.278687
 C     4.629989     0.185223    -0.275870
 C     5.514952    -0.837597    -0.587284
 C     5.028426    -2.129747    -0.912272
 C     3.663228    -2.377628    -0.920109
 C     2.721520    -1.352344    -0.611966
 C     1.300897    -1.587697    -0.584277
 C    -1.306825    -1.023958     1.357365
 C    -0.245251    -1.479516     2.178092
 C    -0.476618    -2.226756     3.341797
 C    -1.785572    -2.553192     3.730178
 C    -2.852002    -2.126134     2.926082
 C    -2.614000    -1.386084     1.755681
 C    -2.126521    -0.588292    -0.978421
 C    -1.932541    -1.532192    -2.007016
 C    -2.965321    -1.856780    -2.900881
 C    -4.224841    -1.246187    -2.785715
 C    -4.437910    -0.310131    -1.760489
 C    -3.401560     0.009405    -0.868379
 C    -0.815721     2.223561     1.434675
 C    -2.333948     2.146430     1.764631
 C    -0.434974     3.739149     1.430382
 C    -0.049059     1.645204     2.664877
 C    -0.717616     2.245199    -1.323103
 C    -0.629557     1.362499    -2.613024
 C    -2.075309     2.994520    -1.420445
 C     0.431338     3.286324    -1.535026
 H     5.007940     1.177067    -0.028335
 H     6.590685    -0.643389    -0.582836
 H     5.728297    -2.932357    -1.158934
 H     3.286886    -3.370242    -1.168438
 H     0.784298    -1.236108     1.922676
 H     0.376213    -2.554779     3.942669
 H    -1.968672    -3.138910     4.635116
 H    -3.881607    -2.378905     3.195007
 H    -3.469553    -1.114093     1.141843
 H    -0.958099    -1.996280    -2.136071
 H    -2.777942    -2.585725    -3.694443
 H    -5.028266    -1.494891    -3.484363
 H    -5.410454     0.178404    -1.652416
 H    -3.586093     0.737841    -0.080774
 H    -2.667796     1.111809     1.910549
 H    -2.959063     2.617851     0.994331
 H    -2.520768     2.682716     2.710595
 H    -0.934870     4.324437     0.650328
 H    -0.747405     4.163401     2.399407
 H     0.649407     3.888697     1.345393
 H    -0.168067     2.339893     3.513123
 H     1.028489     1.546424     2.471037
 H    -0.434362     0.674732     2.985844
 H     0.189852     0.630689    -2.575022
 H    -1.558970     0.832773    -2.836638
 H    -0.426106     2.032571    -3.464830
 H    -2.928364     2.310958    -1.345105
 H    -2.131907     3.472159    -2.413746
 H    -2.195429     3.790829    -0.675366
 H     0.163091     3.917520    -2.398703
 H     0.616085     3.948289    -0.687883
 H     1.375744     2.781733    -1.782908
