   66
scf done: -2158.523840
Cl    -1.911540     2.990791    -1.163653
Cl    -1.911351    -2.990933     1.163417
 C    -0.708013    -0.659917     0.267526
 C     0.822733    -0.730614     0.456911
 C     0.822738     0.730669    -0.456938
 C    -0.708041     0.659873    -0.267705
 C    -1.887885     1.334385    -0.507478
 C    -3.147808     0.683750    -0.249190
 C    -4.402738     1.322429    -0.478526
 C    -5.602263     0.666973    -0.240602
 C    -5.602235    -0.667126     0.240787
 C    -4.402682    -1.322576     0.478584
 C    -3.147778    -0.683885     0.249137
 C    -1.887818    -1.334480     0.507335
 C     1.545513    -1.903419    -0.197314
 C     0.837103    -2.890272    -0.913437
 C     1.498748    -3.961087    -1.537952
 C     2.894556    -4.078024    -1.451707
 C     3.617084    -3.109396    -0.733324
 C     2.950747    -2.040206    -0.119105
 C     1.149154    -0.641529     2.061971
 C     0.009004     0.070954     2.846253
 C     1.244466    -2.096421     2.614805
 C     2.464440     0.085553     2.476294
 C     1.545432     1.903467     0.197370
 C     0.836936     2.890386     0.913320
 C     1.498515     3.961223     1.537867
 C     2.894343     4.078104     1.451846
 C     3.616964     3.109378     0.733692
 C     2.950689     2.040168     0.119439
 C     1.149334     0.641627    -2.061980
 C     0.009358    -0.070983    -2.846392
 C     1.244588     2.096522    -2.614843
 C     2.464751    -0.085295    -2.476146
 H    -4.404694     2.346572    -0.851205
 H    -6.548347     1.182224    -0.425949
 H    -6.548297    -1.182382     0.426229
 H    -4.404591    -2.346719     0.851264
 H    -0.246538    -2.824044    -0.991233
 H     0.915903    -4.703948    -2.089771
 H     3.413197    -4.909864    -1.936056
 H     4.706105    -3.178900    -0.658983
 H     3.540895    -1.285938     0.397571
 H    -0.929361    -0.501283     2.835189
 H     0.322319     0.175335     3.898692
 H    -0.194046     1.079122     2.461519
 H     2.174215    -2.592994     2.303048
 H     1.233854    -2.055668     3.717148
 H     0.402590    -2.720792     2.291570
 H     2.350711     1.174248     2.502839
 H     2.719651    -0.243577     3.498704
 H     3.327334    -0.147268     1.840915
 H    -0.246719     2.824189     0.990965
 H     0.915605     4.704142     2.089539
 H     3.412931     4.909975     1.936200
 H     4.706005     3.178815     0.659557
 H     3.540894     1.285790    -0.397019
 H    -0.193521    -1.079237    -2.461782
 H    -0.929109     0.501074    -2.835322
 H     0.322756    -0.175185    -3.898825
 H     0.402660     2.720857    -2.291688
 H     2.174285     2.593155    -2.303031
 H     1.234063     2.055732    -3.717185
 H     2.719917     0.243679    -3.498620
 H     3.327580     0.147910    -1.840796
 H     2.351263    -1.174001    -2.502449
