   66
scf done: -1140.294695
 N     1.393357    -0.282445     0.875454
 C     2.677578    -0.753209     0.382865
 C     0.877360     0.971730     0.533280
 C     2.737717    -1.597652    -0.749500
 C     4.006150    -2.020555    -1.200938
 H     4.056922    -2.667459    -2.083055
 C     3.859258    -0.401895     1.091596
 C     5.094840    -0.863471     0.611472
 H     6.005361    -0.592821     1.155864
 C     5.193491    -1.658131    -0.548290
 C     1.504225    -2.099972    -1.476270
 H     0.584858    -1.838506    -0.940564
 H     1.549669    -3.196624    -1.590530
 H     1.439401    -1.671966    -2.492111
 B     0.683839     1.346112    -1.155632
 H     1.154371     0.602552    -1.951100
 B     0.793826     2.320123     1.525440
 H     1.294785     2.205320     2.599812
 C     6.547293    -2.102909    -1.071317
 H     7.212820    -2.421066    -0.251261
 H     7.058696    -1.278972    -1.601544
 H     6.450301    -2.941417    -1.779314
 C     3.808235     0.438852     2.353951
 H     3.469865     1.465324     2.146246
 H     4.804619     0.496198     2.817953
 H     3.115239     0.021670     3.106142
 B     1.719382     2.300886    -0.010105
 H     2.901756     2.189619    -0.075892
 B     0.748507     3.135034    -1.238899
 H     1.292645     3.706108    -2.133994
 B     0.756410     3.739414     0.454919
 H     1.307589     4.745839     0.782895
 H     1.194123    -0.530924     1.846267
 N    -1.393364    -0.282437    -0.875470
 C    -2.677580    -0.753210    -0.382879
 C    -0.877368     0.971735    -0.533287
 C    -2.737704    -1.597670     0.749477
 C    -4.006129    -2.020585     1.200921
 H    -4.056889    -2.667506     2.083026
 C    -3.859267    -0.401893    -1.091593
 C    -5.094844    -0.863481    -0.611462
 H    -6.005371    -0.592830    -1.155842
 C    -5.193480    -1.658153     0.548292
 C    -1.504201    -2.099997     1.476222
 H    -0.584840    -1.838502     0.940520
 H    -1.549629    -3.196653     1.590448
 H    -1.439376    -1.672023     2.492076
 B    -0.683846     1.346099     1.155631
 H    -1.154377     0.602528     1.951090
 B    -0.793835     2.320138    -1.525431
 H    -1.294793     2.205345    -2.599805
 C    -6.547271    -2.102919     1.071355
 H    -7.213006    -2.420571     0.251275
 H    -7.058419    -1.279130     1.602062
 H    -6.450310    -2.941768     1.778953
 C    -3.808263     0.438869    -2.353939
 H    -3.469925     1.465349    -2.146220
 H    -4.804647     0.496191    -2.817943
 H    -3.115251     0.021717    -3.106131
 B    -1.719390     2.300883     0.010114
 H    -2.901765     2.189615     0.075900
 B    -0.748517     3.135020     1.238916
 H    -1.292656     3.706083     2.134017
 B    -0.756421     3.739417    -0.454895
 H    -1.307602     4.745845    -0.782861
 H    -1.194124    -0.530916    -1.846282
