   62
scf done: -1981.116432
 I     3.575283     1.541790    -0.343019
 I    -3.575113     1.541639     0.343868
 C     0.865857    -1.023306    -0.209208
 C    -0.865795    -1.023354     0.208958
 C    -0.698618     0.495323     0.121826
 C    -1.426694     1.661308     0.169545
 C    -0.730898     2.921446     0.073173
 C    -1.399447     4.179672     0.134619
 C    -0.705830     5.379833     0.067364
 C     0.705827     5.379860    -0.066549
 C     1.399488     4.179728    -0.133847
 C     0.730980     2.921475    -0.072490
 C     1.426820     1.661368    -0.168949
 C     0.698792     0.495349    -0.121266
 C     1.059402    -1.571352    -1.611942
 C     1.505877    -0.761417    -2.674238
 C     1.610312    -1.275373    -3.978749
 C     1.263425    -2.609134    -4.244452
 C     0.813063    -3.427796    -3.193372
 C     0.711701    -2.912483    -1.894360
 C     1.803765    -1.592532     0.848853
 C     1.885680    -0.962558     2.113876
 C     2.706018    -1.473681     3.126866
 C     3.481592    -2.623840     2.896372
 C     3.431128    -3.244333     1.638235
 C     2.603615    -2.732590     0.624115
 C    -1.803757    -1.591919    -0.849399
 C    -1.885636    -0.961263    -2.114095
 C    -2.706092    -1.471745    -3.127301
 C    -3.481827    -2.621914    -2.897358
 C    -3.431399    -3.243068    -1.639554
 C    -2.603758    -2.731967    -0.625207
 C    -1.059426    -1.572085     1.611398
 C    -0.711886    -2.913390     1.893166
 C    -0.813352    -3.429324     3.191924
 C    -1.263701    -2.611130     4.243373
 C    -1.610474    -1.277213     3.978308
 C    -1.505931    -0.762628     2.674052
 H    -2.485401     4.181761     0.243819
 H    -1.251494     6.325472     0.119673
 H     1.251459     6.325521    -0.118806
 H     2.485443     4.181861    -0.243015
 H     1.761881     0.281762    -2.487526
 H     1.956807    -0.624966    -4.786777
 H     1.335387    -3.006731    -5.260496
 H     0.523635    -4.464167    -3.387461
 H     0.323378    -3.546336    -1.095344
 H     1.287339    -0.072974     2.311516
 H     2.738621    -0.971922     4.097749
 H     4.123654    -3.024741     3.685548
 H     4.041762    -4.129125     1.436511
 H     2.592201    -3.220640    -0.350084
 H    -1.287190    -0.071657    -2.311290
 H    -2.738684    -0.969484    -4.097924
 H    -4.123977    -3.022304    -3.686722
 H    -4.042172    -4.127858    -1.438247
 H    -2.592319    -3.220551     0.348724
 H    -0.323606    -3.546894     1.093854
 H    -0.524046    -4.465818     3.385536
 H    -1.335750    -3.009211     5.259222
 H    -1.956984    -0.627190     4.786638
 H    -1.761869     0.280661     2.487814
