   58
scf done: -1978.754789
 I    -1.721194     3.585363    -0.057550
 I    -1.721959    -3.585007     0.057617
 C     0.787756     0.906117     0.019167
 C     0.787543    -0.906317    -0.019111
 C    -0.711558    -0.709293     0.013290
 C    -1.876605    -1.437958     0.027323
 C    -3.135957    -0.734584     0.015552
 C    -4.393690    -1.406006     0.029905
 C    -5.593459    -0.708389     0.015170
 C    -5.593310     0.709558    -0.015060
 C    -4.393394     1.406924    -0.029775
 C    -3.135801     0.735241    -0.015407
 C    -1.876299     1.438349    -0.027183
 C    -0.711402     0.709438    -0.013118
 C     1.445376     1.472668     1.254151
 C     1.023687     1.456456     2.585361
 C     1.863789     2.014072     3.571935
 C     3.103520     2.579311     3.219290
 C     3.510714     2.638026     1.871569
 C     2.669536     2.100254     0.887245
 C     2.740103     2.145203    -0.585386
 C     3.674776     2.738260    -1.445727
 C     3.405875     2.762221    -2.828486
 C     2.210407     2.221177    -3.336980
 C     1.275936     1.608729    -2.476120
 C     1.557323     1.546411    -1.108946
 C     1.557105    -1.546738     1.108922
 C     1.275817    -1.609041     2.476115
 C     2.210252    -2.221665     3.336888
 C     3.405587    -2.762902     2.828284
 C     3.674380    -2.738958     1.445503
 C     2.739735    -2.145731     0.585249
 C     2.669027    -2.100775    -0.887378
 C     3.509999    -2.638719    -1.871785
 C     3.102663    -2.579961    -3.219461
 C     1.862996    -2.014496    -3.571979
 C     1.023109    -1.456705    -2.585324
 C     1.444942    -1.472972    -1.254160
 H    -4.395191    -2.497450     0.052816
 H    -6.539518    -1.255668     0.026971
 H    -6.539254     1.257037    -0.026878
 H    -4.394661     2.498368    -0.052678
 H     0.051464     1.039695     2.856663
 H     1.545711     2.009799     4.617801
 H     3.746998     3.000469     3.996627
 H     4.454030     3.119447     1.598688
 H     4.585260     3.197406    -1.050406
 H     4.123315     3.226686    -3.510606
 H     2.000276     2.277780    -4.408244
 H     0.341463     1.209475    -2.872118
 H     0.341443    -1.209631     2.872198
 H     2.000203    -2.278253     4.408169
 H     4.123000    -3.227509     3.510334
 H     4.584752    -3.198253     1.050101
 H     4.453257    -3.120305    -1.598997
 H     3.745975    -3.001242    -3.996867
 H     1.544803    -2.010196    -4.617809
 H     0.050939    -1.039749    -2.856527
