   62
scf done: -6533.564931
Br     1.757515     3.301873    -0.676059
Br     1.756799    -3.302536     0.675169
 C    -0.848801     0.849167    -0.279961
 C    -0.848928    -0.849055     0.280067
 C     0.668913    -0.683650     0.185159
 C     1.837214    -1.399755     0.306974
 C     3.096892    -0.718706     0.143819
 C     4.352532    -1.381925     0.271181
 C     5.551602    -0.697038     0.135236
 C     5.551740     0.695507    -0.136638
 C     4.352808     1.380653    -0.272484
 C     3.097039     0.717700    -0.145000
 C     1.837506     1.399045    -0.307961
 C     0.669043     0.683213    -0.186046
 C    -1.405603     0.933854    -1.689357
 C    -2.747673     0.562714    -1.936120
 C    -3.270641     0.562669    -3.235807
 C    -2.459162     0.932658    -4.323043
 C    -1.125377     1.303616    -4.092461
 C    -0.603622     1.301575    -2.787082
 C    -1.412119     1.862118     0.708708
 C    -0.771922     2.040810     1.957974
 C    -1.289388     2.917142     2.919371
 C    -2.455944     3.654228     2.650053
 C    -3.084095     3.511906     1.402950
 C    -2.565633     2.628950     0.440735
 C    -1.413286    -1.861840    -0.708184
 C    -0.774142    -2.040595    -1.957986
 C    -1.292529    -2.916807    -2.918995
 C    -2.458996    -3.653700    -2.648749
 C    -3.086114    -3.511300    -1.401132
 C    -2.566728    -2.628458    -0.439309
 C    -1.404924    -0.933407     1.689799
 C    -0.602475    -1.301093     2.787179
 C    -1.123544    -1.302683     4.092838
 C    -2.457092    -0.931291     4.324043
 C    -3.269038    -0.561315     3.237147
 C    -2.746766    -0.561828     1.937185
 H     4.351862    -2.451363     0.485247
 H     6.498133    -1.233667     0.240040
 H     6.498377     1.231930    -0.241546
 H     4.352350     2.450094    -0.486537
 H    -3.375553     0.234299    -1.106333
 H    -4.307244     0.256573    -3.401140
 H    -2.862594     0.924776    -5.339376
 H    -0.481635     1.590744    -4.928709
 H     0.438547     1.577708    -2.626062
 H     0.130028     1.472257     2.185757
 H    -0.779442     3.023706     3.880731
 H    -2.862733     4.338815     3.399578
 H    -3.980090     4.094148     1.168867
 H    -3.060329     2.547160    -0.526813
 H     0.127708    -1.472161    -2.186488
 H    -0.783379    -3.023413    -3.880772
 H    -2.866509    -4.338208    -3.397955
 H    -3.982033    -4.093374    -1.166337
 H    -3.060633    -2.546614     0.528641
 H     0.439543    -1.577511     2.625700
 H    -0.479429    -1.589783     4.928809
 H    -2.859988    -0.923059     5.340584
 H    -4.305466    -0.254891     3.402965
 H    -3.374983    -0.233429     1.107649
