   54
scf done: -1307.182694
 C     0.000117     0.652825     0.886216
 C    -0.000043     0.652443    -0.886183
 C    -0.000171    -1.935587     0.684594
 C    -0.000262    -1.935922    -0.683602
 C    -1.238925    -0.021731     1.452921
 C    -2.352898     0.645082     1.977280
 H    -2.363604     1.737438     2.011367
 C    -3.457194    -0.096116     2.443740
 H    -4.324297     0.427082     2.856365
 C    -3.451738    -1.498314     2.373688
 H    -4.314174    -2.067600     2.731333
 C    -2.341141    -2.177992     1.832960
 H    -2.339832    -3.268121     1.752590
 C    -1.241533    -1.446159     1.376656
 C     1.239056    -0.021989     1.452798
 C     2.353205     0.644581     1.977084
 H     2.364156     1.736932     2.011166
 C     3.457364    -0.096859     2.443494
 H     4.324610     0.426156     2.856051
 C     3.451593    -1.499052     2.373454
 H     4.313912    -2.068534     2.731069
 C     2.340816    -2.178491     1.832788
 H     2.339269    -3.268620     1.752428
 C     1.241348    -1.446424     1.376530
 C    -1.239085    -0.022367    -1.452593
 C    -2.352988     0.644222    -1.977365
 H    -2.363734     1.736564    -2.011810
 C    -3.457182    -0.097178    -2.443763
 H    -4.324219     0.425853    -2.856741
 C    -3.451677    -1.499348    -2.373243
 H    -4.314030    -2.068796    -2.730831
 C    -2.341147    -2.178801    -1.832074
 H    -2.339820    -3.268904    -1.751342
 C    -1.241662    -1.446774    -1.375806
 C     1.238850    -0.022579    -1.452718
 C     2.352856     0.643799    -1.977527
 H     2.363812     1.736138    -2.011978
 C     3.456900    -0.097809    -2.443964
 H     4.324020     0.425068    -2.856964
 C     3.451144    -1.499973    -2.373440
 H     4.313369    -2.069584    -2.731074
 C     2.340504    -2.179222    -1.832229
 H     2.338988    -3.269324    -1.751474
 C     1.241173    -1.446989    -1.375931
 C     0.000255     2.162953     0.701728
 C     0.000594     3.346878     1.444398
 H     0.000727     3.356310     2.537684
 C     0.000741     4.552930     0.704668
 H     0.000992     5.508772     1.236254
 C     0.000583     4.552637    -0.706255
 H     0.000723     5.508260    -1.238232
 C     0.000269     3.346278    -1.445486
 H     0.000164     3.355243    -2.538775
 C     0.000105     2.162659    -0.702330
