   23
scf done:  -739.615983
 C     7.894305     5.705868     9.896267
 C     8.079601     6.999780    10.383368
 C     7.049766     7.945427    10.240713
 C     5.850322     7.566389     9.607985
 C     5.708171     6.264369     9.136827
 N     6.723019     5.358258     9.285518
 C     6.531708     3.977557     8.768517
 C     7.572868     2.825846     8.851192
 C     5.413223     2.983903     9.221133
 C     6.243820     3.595406     7.280442
 C     6.289588     2.274561     8.128289
 I     6.018257     0.283583     7.384954
 H     8.645446     4.921203     9.970477
 H     9.023619     7.253768    10.867388
 H     7.177685     8.962663    10.616062
 H     5.027954     8.271280     9.478243
 H     4.811876     5.898070     8.637761
 H     7.780036     2.407875     9.846227
 H     8.472885     2.917930     8.227331
 H     4.381340     3.225836     8.930659
 H     5.489057     2.589092    10.243260
 H     7.063277     3.748029     6.565205
 H     5.261977     3.874206     6.873081
