   72
scf done: -1218.875098
 N     1.640112     0.558782     0.281058
 N    -1.652838     0.612964     0.318799
 C     4.162163    -3.112757     0.447543
 H     3.943729    -4.119935     0.817572
 C     3.100599    -2.306235    -0.000341
 C    -3.369816    -0.962294    -0.479803
 C     3.375249    -0.999394    -0.478418
 C     1.049687     1.816622     0.195737
 C     2.231790    -0.102290    -0.917766
 H     2.579576     0.661889    -1.628534
 H     1.444328    -0.682205    -1.425343
 C     5.492764    -2.654699     0.439472
 B    -1.428881     3.130788    -0.652697
 C    -1.009142     1.828082     0.270709
 B     0.058386     2.180135    -1.121993
 C    -5.704135    -1.136017     0.202050
 H    -6.655380    -0.648626     0.440349
 C     4.706222    -0.507619    -0.470995
 C    -3.254483    -2.372943    -0.406632
 C     5.740836    -1.347101    -0.016481
 H     6.767111    -0.965869    -0.012170
 C    -2.175220    -0.101789    -0.864749
 H    -1.380656    -0.704302    -1.335437
 H    -2.468511     0.667650    -1.593275
 B     1.519923     3.165756    -0.701046
 B     0.018626     2.212936     1.568297
 C    -4.608721    -0.337132    -0.168578
 B     0.039920     3.960045    -1.240524
 C    -4.378083    -3.136001    -0.031421
 H    -4.282757    -4.225318     0.023698
 C    -5.612397    -2.539099     0.274569
 B    -1.428624     3.212410     1.142705
 B     1.512211     3.136851     1.088352
 C     6.629884    -3.551420     0.895158
 H     7.018169    -4.159715     0.057566
 H     6.302156    -4.251902     1.680758
 H     7.474264    -2.962977     1.289398
 C     1.676821    -2.836785     0.044702
 H     1.626878    -3.788605     0.595519
 H     1.275518    -3.019267    -0.968438
 H     0.997611    -2.119251     0.534859
 B    -0.830094     4.590670     0.205938
 C    -1.949837    -3.091626    -0.719593
 H    -2.052637    -4.174035    -0.546588
 H    -1.118834    -2.733732    -0.090171
 H    -1.639193    -2.953679    -1.770435
 B     0.938576     4.580545     0.198265
 C    -4.770581     1.171927    -0.225202
 H    -5.807846     1.462430     0.001427
 H    -4.520702     1.575284    -1.222156
 H    -4.105651     1.679946     0.492127
 B     0.061825     4.001245     1.657631
 C    -6.820122    -3.377604     0.653336
 H    -7.358455    -2.943249     1.512693
 H    -6.529966    -4.407433     0.916155
 H    -7.541798    -3.438886    -0.181581
 C     5.034784     0.904608    -0.930719
 H     6.102178     1.125134    -0.776907
 H     4.451658     1.665014    -0.384246
 H     4.817240     1.049301    -2.003787
 H     0.018650     1.416791    -2.032457
 H    -2.421068     3.113634     1.794113
 H     0.042369     1.448031     2.483759
 H     1.579683     5.587027     0.191913
 H    -2.414814     3.040376    -1.314145
 H     2.504025     3.008781     1.739912
 H    -1.459314     5.604277     0.179784
 H     0.005282     4.526400    -2.290240
 H     2.510376     3.045836    -1.352974
 H     0.096723     4.587605     2.696341
 H     2.202058     0.431497     1.124240
 H    -1.511830     0.052362     1.157592
