   55
scf done: -1021.174377
 B    -2.332109    -0.062118    -1.477290
 H    -1.568180    -0.153198    -2.380694
 B    -3.125398     1.427345    -0.979571
 H    -2.966627     2.406866    -1.636406
 B    -3.021948     1.549810     0.814623
 H    -2.841326     2.608888     1.325289
 B    -2.212127     0.121945     1.485156
 H    -1.375893     0.165892     2.323872
 B    -3.089335    -1.337434     1.042553
 H    -2.929487    -2.326115     1.686326
 B    -3.145466    -1.454272    -0.757593
 H    -3.031788    -2.517445    -1.279720
 B    -4.072725    -0.038132    -1.379090
 H    -4.718175    -0.113632    -2.379188
 B    -3.946134     0.172150     1.517413
 H    -4.512604     0.271374     2.562292
 B    -4.548189    -0.827440     0.154984
 H    -5.558718    -1.454481     0.242859
 B    -4.522596     0.972085     0.022844
 H    -5.512764     1.636526     0.027207
 N    -0.383469     1.208181    -0.213374
 N    -0.412108    -1.187234     0.084023
 C    -1.761575     0.836204    -0.091008
 C    -1.790551    -0.791815     0.061060
 C     0.395753    -0.032103    -0.439136
 H     1.359456     0.025161     0.083302
 H     0.591025    -0.171587    -1.520590
 C    -0.078553    -2.475962    -0.551229
 H    -0.236059    -2.439819    -1.650435
 H    -0.777290    -3.225720    -0.145379
 C     1.361732    -2.857871    -0.241751
 C     1.836959    -2.810741     1.085794
 H     1.160900    -2.480395     1.878810
 C     3.162781    -3.164359     1.378083
 H     3.521462    -3.122787     2.410417
 C     4.029156    -3.572565     0.346744
 H     5.062543    -3.847678     0.574928
 C     3.562716    -3.619483    -0.977320
 H     4.231750    -3.928672    -1.785086
 C     2.235523    -3.258286    -1.269132
 H     1.875373    -3.285349    -2.302175
 C     0.164591     2.137447     0.804072
 H     0.256316     1.656316     1.797317
 H    -0.566065     2.954859     0.905022
 C     1.512413     2.682990     0.360381
 C     2.611921     2.668170     1.238865
 H     2.493692     2.244824     2.241223
 C     3.854196     3.190905     0.837861
 H     4.700450     3.172851     1.530140
 C     4.007584     3.725943    -0.451581
 H     4.973737     4.128960    -0.767451
 C     2.914423     3.735766    -1.338254
 H     3.029630     4.147696    -2.344766
 C     1.674717     3.217551    -0.934972
 H     0.825112     3.209594    -1.622658
