   50
scf done:  -980.703036
 B     5.738366     3.526738     3.604193
 B     4.195162     4.434830     3.613421
 B     3.581964     4.434668     5.290053
 B     5.745720     5.302746     3.584436
 B     4.408034     5.870470     4.641796
 C     4.417595     3.090458     4.645165
 C     2.684181     1.661470     4.010063
 H     2.043470     2.529130     3.773821
 N     3.891033     1.800275     4.453227
 C     2.089810     0.336794     3.792984
 C     0.765279     0.246529     3.307796
 H     0.205474     1.164023     3.102203
 C     0.173718    -1.006984     3.091821
 H    -0.850995    -1.070024     2.716520
 C     0.901846    -2.179454     3.359172
 H     0.442376    -3.157424     3.191366
 C     2.223775    -2.096904     3.843338
 H     2.786597    -3.011308     4.049942
 C     2.816889    -0.849011     4.059943
 H     3.838715    -0.758665     4.434198
 H     2.424169     4.273023     5.518241
 H     6.044431     2.743369     2.767978
 H     3.457757     4.273503     2.692065
 H     6.103366     5.884907     2.606806
 H     3.801916     6.873583     4.420290
 B     4.755145     3.526743     6.292993
 B     6.298349     4.434836     6.283761
 B     6.911546     4.434667     4.607129
 B     4.747791     5.302752     6.312742
 B     6.085477     5.870472     5.255380
 C     6.075915     3.090459     5.252022
 C     7.809327     1.661474     5.887134
 H     8.450037     2.529134     6.123373
 N     6.602477     1.800277     5.443965
 C     8.403701     0.336798     6.104210
 C     9.728232     0.246536     6.589398
 H    10.288035     1.164031     6.794992
 C    10.319797    -1.006976     6.805372
 H    11.344510    -1.070014     7.180673
 C     9.591671    -2.179447     6.538020
 H    10.051144    -3.157416     6.705824
 C     8.269742    -2.096900     6.053854
 H     7.706921    -3.011305     5.847250
 C     7.676625    -0.849008     5.837250
 H     6.654799    -0.758664     5.462996
 H     8.069341     4.273017     4.378942
 H     4.449077     2.743380     7.129211
 H     7.035753     4.273510     7.205118
 H     4.390144     5.884918     7.290370
 H     6.691596     6.873585     5.476882
