   54
scf done:  -983.098365
 B     1.163130    -2.026537    -0.000000
 B     0.793963    -3.024797     1.473899
 B    -0.993004    -3.171904     1.469901
 B    -1.509561    -2.244924    -0.000000
 B     1.412018    -3.797837    -0.000000
 B     0.014777    -4.521446     0.882457
 B    -1.475958    -4.039157    -0.000000
 C    -0.206153    -1.767816     1.028618
 N    -0.354911    -0.522360     1.625813
 C     0.716882     0.055041     2.462243
 H     1.634543     0.070353     1.850957
 H     0.929837    -0.581122     3.342687
 C     0.346359     1.459068     2.912402
 C     0.629531     1.882626     4.225354
 H     1.095325     1.184677     4.927856
 C     0.318110     3.189856     4.636325
 H     0.542656     3.505335     5.658934
 C    -0.291676     4.084516     3.740193
 H    -0.540151     5.099643     4.061648
 C    -0.586867     3.665502     2.430637
 H    -1.063855     4.354559     1.727765
 C    -0.267980     2.361699     2.020719
 H    -0.500602     2.024446     1.009163
 H     2.024152    -1.205939    -0.000000
 H    -2.472950    -4.694366    -0.000000
 H     1.442644    -2.866686     2.460425
 H    -2.475759    -1.545605    -0.000000
 H     2.499920    -4.287170    -0.000000
 H    -1.654385    -3.102197     2.459839
 H     0.101119    -5.526299     1.520037
 H    -1.292429    -0.360735     1.998851
 B     0.793963    -3.024797    -1.473899
 B    -0.993004    -3.171904    -1.469901
 B     0.014777    -4.521446    -0.882457
 C    -0.206153    -1.767816    -1.028618
 N    -0.354911    -0.522360    -1.625813
 C     0.716882     0.055041    -2.462243
 H     1.634543     0.070353    -1.850957
 H     0.929837    -0.581122    -3.342687
 C     0.346359     1.459068    -2.912402
 C     0.629531     1.882626    -4.225354
 H     1.095325     1.184677    -4.927856
 C     0.318110     3.189856    -4.636325
 H     0.542656     3.505335    -5.658934
 C    -0.291676     4.084516    -3.740193
 H    -0.540151     5.099643    -4.061648
 C    -0.586867     3.665502    -2.430637
 H    -1.063855     4.354559    -1.727765
 C    -0.267980     2.361699    -2.020719
 H    -0.500602     2.024446    -1.009163
 H     1.442644    -2.866686    -2.460425
 H    -1.654385    -3.102197    -2.459839
 H     0.101119    -5.526299    -1.520037
 H    -1.292429    -0.360735    -1.998851
