   70
FINAL HEAT OF FORMATION = -1616.358014
 H     6.253874     6.035692    23.037451
 C     7.935950     4.636465    25.401044
 C     8.156033     6.018444    25.510526
 C     7.237326     6.824733    24.818867
 C     7.415816     8.195385    24.903223
 C     6.714747     4.435791    24.516740
 C     6.248144     5.891585    24.130203
 H     6.739831     8.886654    24.393318
 H     6.958619     3.840280    23.621338
 H     5.919117     3.884110    25.044249
 H     5.213381     6.078481    24.461007
 H    12.688322     7.765122    23.057333
 C    10.108401     5.714115    26.935575
 C     9.892564     4.340863    26.838147
 C     8.808892     3.796838    26.072492
 C     8.503819     8.736371    25.664469
 C     9.391445     7.908289    26.330855
 C     9.202674     6.534762    26.251559
 C    11.164520     6.572672    27.632668
 C    11.142686     6.375653    29.159353
 C    10.285064     5.435038    29.752284
 C    10.137538     5.327523    31.132872
 C    10.836145     6.192730    31.975866
 C    11.701106     7.122386    31.413417
 C    11.901149     7.207901    30.021126
 C    12.879848     8.180351    29.562719
 C    13.643345     8.127606    28.452974
 C    13.680043     7.085702    27.439351
 C    14.903684     6.914571    26.761401
 C    15.082819     5.921398    25.807551
 C    14.013769     5.075935    25.508846
 C    12.783226     5.264177    26.133771
 C    12.571152     6.272101    27.089064
 C    10.624014     8.192090    27.168750
 C    10.070523     8.924696    28.395605
 C     8.974735     8.274899    29.003261
 C     8.352103     8.746019    30.149985
 C    12.605961     8.404000    23.938913
 C    11.744785     8.047222    24.966848
 C    11.603313     8.797043    26.154995
 H    10.555603     3.635699    27.343652
 H     8.693866     2.710057    26.031828
 H     9.674021     4.794071    29.121967
 H     9.449008     4.585144    31.543521
 H    10.706483     6.142528    33.059125
 H    12.260689     7.804488    32.057184
 H    13.067913     9.006898    30.252341
 H    14.389743     8.916232    28.329735
 H    15.729739     7.583968    27.011299
 H    16.043412     5.808558    25.300102
 H    14.121458     4.286194    24.761400
 H    11.954152     4.634446    25.822549
 H     8.596783     7.352357    28.568598
 H     7.524530     8.182115    30.585547
 H    11.164919     7.136564    24.838715
 H    14.036634     9.885291    23.251910
 C     8.795891     9.936625    30.728846
 C     9.843815    10.616031    30.128155
 C    10.497911    10.142799    28.963563
 C    11.560510    11.002548    28.467973
 C    12.316195    10.942430    27.354131
 C    12.342594     9.994930    26.251466
 C    13.205649    10.352353    25.185592
 C    13.354319     9.577160    24.047167
 H     8.624507     9.820392    25.705756
 H     8.322848    10.332343    31.630198
 H    10.187770    11.559842    30.557135
 H    11.751367    11.865349    29.112751
 H    13.027764    11.764110    27.230940
 H    13.769885    11.283105    25.278216
