  212
scf done: -3351.259056
 C     0.828643    -0.003372     0.012861
 C    -0.828643     0.003372    -0.012861
 C     1.456962     0.318799    -1.381218
 C    -1.456962    -0.318799     1.381218
 C    -1.425182     1.384431    -0.434993
 C     1.425182    -1.384431     0.434993
 C     1.409435     1.051156     1.007158
 C    -1.409435    -1.051156    -1.007158
 C     1.016253     1.092718     2.353056
 C    -1.016253    -1.092718    -2.353056
 C    -1.050004    -1.426923     2.147212
 C     1.050004     1.426923    -2.147212
 C     1.031299    -2.583245    -0.176980
 C    -1.031299     2.583245     0.176980
 C     2.454949     1.899872     0.625036
 C    -2.454949    -1.899872    -0.625036
 C    -2.557828     0.403313     1.845666
 C     2.557828    -0.403313    -1.845666
 C     2.509978    -1.449876     1.317732
 C    -2.509978     1.449876    -1.317732
 C     1.580016     1.980676     3.274187
 C    -1.580016    -1.980676    -3.274187
 C    -1.678450    -1.780509     3.341480
 C     1.678450     1.780509    -3.341480
 C     1.652948    -3.806051     0.095896
 C    -1.652948     3.806051    -0.095896
 C     3.081403     2.776620     1.523041
 C    -3.081403    -2.776620    -1.523041
 C    -3.250142     0.058380     3.019144
 C     3.250142    -0.058380    -3.019144
 C     3.189297    -2.645970     1.591689
 C    -3.189297     2.645970    -1.591689
 C     2.612047     2.827579     2.840602
 C    -2.612047    -2.827579    -2.840602
 C    -2.791729    -1.029073     3.761711
 C     2.791729     1.029073    -3.761711
 C     2.740584    -3.821843     0.981529
 C    -2.740584     3.821843    -0.981529
 H     0.257256     0.407557     2.703461
 H    -0.257256    -0.407557    -2.703461
 H    -0.222518    -2.027224     1.801120
 H     0.222518     2.027224    -1.801120
 H     0.223712    -2.570372    -0.895477
 H    -0.223712     2.570372     0.895477
 H     2.822396     1.863603    -0.394607
 H    -2.822396    -1.863603     0.394607
 H    -2.920129     1.249692     1.273175
 H     2.920129    -1.249692    -1.273175
 H     2.868377    -0.538842     1.785303
 H    -2.868377     0.538842    -1.785303
 C     1.091722     1.940992     4.732743
 C    -1.091722    -1.940992    -4.732743
 C    -1.206960    -2.988777     4.166672
 C     1.206960     2.988777    -4.166672
 C     1.105182    -5.077010    -0.573511
 C    -1.105182     5.077010     0.573511
 C     4.306752     3.572435     1.042995
 C    -4.306752    -3.572435    -1.042995
 C    -4.490146     0.878903     3.404439
 C     4.490146    -0.878903    -3.404439
 C     4.415215    -2.600858     2.517599
 C    -4.415215     2.600858    -2.517599
 H     3.071585     3.513738     3.546288
 H    -3.071585    -3.513738    -3.546288
 H    -3.303875    -1.310674     4.679435
 H     3.303875     1.310674    -4.679435
 H     3.244932    -4.760412     1.192022
 H    -3.244932     4.760412    -1.192022
 C     5.086732    -0.431929    -4.746908
 C    -5.086732     0.431929     4.746908
 C    -5.010109     3.995253    -2.762768
 C     5.010109    -3.995253     2.762768
 C     4.785872     4.587384     2.091522
 C    -4.785872    -4.587384    -2.091522
 C     5.558859    -0.696323    -2.304501
 C    -5.558859     0.696323     2.304501
 C    -5.496518     1.714794    -1.860970
 C     5.496518    -1.714794     1.860970
 C     5.447130     2.565190     0.771475
 C    -5.447130    -2.565190    -0.771475
 C     4.115448    -2.372081    -3.511058
 C    -4.115448     2.372081     3.511058
 C    -4.016401     1.995396    -3.878550
 C     4.016401    -1.995396     3.878550
 C     3.988656     4.336002    -0.258453
 C    -3.988656    -4.336002     0.258453
 C     1.110269     2.607247    -5.657845
 C    -1.110269    -2.607247     5.657845
 C    -1.963959     6.312440     0.267457
 C     1.963959    -6.312440    -0.267457
 C     1.662353     3.098953     5.565141
 C    -1.662353    -3.098953    -5.565141
 C    -0.174975     3.484717    -3.712081
 C     0.174975    -3.484717     3.712081
 C     0.325999     5.324297     0.052728
 C    -0.325999    -5.324297    -0.052728
 C    -0.447697     2.021116     4.781273
 C     0.447697    -2.021116    -4.781273
 C     2.227041     4.133299    -3.990874
 C    -2.227041    -4.133299     3.990874
 C    -1.054792     4.880962     2.102582
 C     1.054792    -4.880962    -2.102582
 C     1.546017     0.606665     5.361544
 C    -1.546017    -0.606665    -5.361544
 H     0.736934     3.461368    -6.245102
 H    -0.736934    -3.461368     6.245102
 H    -1.542036     7.194651     0.773399
 H     1.542036    -7.194651    -0.773399
 H     1.262431     3.054558     6.590000
 H    -1.262431    -3.054558    -6.590000
 H     2.084892     2.320146    -6.078863
 H    -2.084892    -2.320146     6.078863
 H    -2.998987     6.186303     0.621584
 H     2.998987    -6.186303    -0.621584
 H     2.759654     3.053495     5.638196
 H    -2.759654    -3.053495    -5.638196
 H     0.418264     1.763671    -5.802826
 H    -0.418264    -1.763671     5.802826
 H    -1.994955     6.533138    -0.810533
 H     1.994955    -6.533138     0.810533
 H     1.387036     4.076227     5.138683
 H    -1.387036    -4.076227    -5.138683
 H     1.930810     5.014000    -4.584287
 H    -1.930810    -5.014000     4.584287
 H    -0.683786     5.795075     2.593725
 H     0.683786    -5.795075    -2.593725
 H     1.185312     0.523409     6.399899
 H    -1.185312    -0.523409    -6.399899
 H     2.291068     4.437099    -2.934730
 H    -2.291068    -4.437099     2.934730
 H    -0.382031     4.059122     2.383261
 H     0.382031    -4.059122    -2.383261
 H     1.156240    -0.252464     4.796371
 H    -1.156240     0.252464    -4.796371
 H     3.233890     3.827149    -4.314618
 H    -3.233890    -3.827149     4.314618
 H    -2.054105     4.655379     2.505947
 H     2.054105    -4.655379    -2.505947
 H     2.644136     0.531049     5.372891
 H    -2.644136    -0.531049    -5.372891
 H    -0.505238     4.315892    -4.354239
 H     0.505238    -4.315892     4.354239
 H     0.767782     6.211442     0.535836
 H    -0.767782    -6.211442    -0.535836
 H    -0.797059     1.987548     5.825914
 H     0.797059    -1.987548    -5.825914
 H    -0.930769     2.688374    -3.771803
 H     0.930769    -2.688374     3.771803
 H     0.327231     5.493094    -1.035582
 H    -0.327231    -5.493094     1.035582
 H    -0.808756     2.957246     4.331011
 H     0.808756    -2.957246    -4.331011
 H    -0.167937     3.852014    -2.677091
 H     0.167937    -3.852014     2.677091
 H     0.977632     4.464762     0.261691
 H    -0.977632    -4.464762    -0.261691
 H    -0.925045     1.188673     4.247745
 H     0.925045    -1.188673    -4.247745
 H     5.964299    -1.050428    -4.990921
 H    -5.964299     1.050428     4.990921
 H    -5.877087     3.918160    -3.437075
 H     5.877087    -3.918160     3.437075
 H     5.646363     5.151799     1.700079
 H    -5.646363    -5.151799    -1.700079
 H     4.361760    -0.540106    -5.568524
 H    -4.361760     0.540106     5.568524
 H    -4.279550     4.671284    -3.233401
 H     4.279550    -4.671284     3.233401
 H     3.995404     5.311460     2.343490
 H    -3.995404    -5.311460    -2.343490
 H     5.418634     0.617255    -4.718102
 H    -5.418634    -0.617255     4.718102
 H    -5.357250     4.462444    -1.828458
 H     5.357250    -4.462444     1.828458
 H     5.109740     4.096096     3.021587
 H    -5.109740    -4.096096    -3.021587
 H     6.465922    -1.274926    -2.544570
 H    -6.465922     1.274926     2.544570
 H    -6.391204     1.655448    -2.502175
 H     6.391204    -1.655448     2.502175
 H     6.356422     3.089008     0.433496
 H    -6.356422    -3.089008    -0.433496
 H     5.843250     0.363508    -2.208292
 H    -5.843250    -0.363508     2.208292
 H    -5.800597     2.128012    -0.886418
 H     5.800597    -2.128012     0.886418
 H     5.695113     2.000025     1.683743
 H    -5.695113    -2.000025    -1.683743
 H     5.191495    -1.034007    -1.324170
 H    -5.191495     1.034007     1.324170
 H    -5.133462     0.690217    -1.691185
 H     5.133462    -0.690217     1.691185
 H     5.164002     1.838998    -0.005479
 H    -5.164002    -1.838998     0.005479
 H     5.001440    -2.970698    -3.777893
 H    -5.001440     2.970698     3.777893
 H    -4.891252     1.939047    -4.546454
 H     4.891252    -1.939047     4.546454
 H     4.885315     4.867727    -0.615259
 H    -4.885315    -4.867727     0.615259
 H     3.720098    -2.763833    -2.562613
 H    -3.720098     2.763833     2.562613
 H    -3.611725     0.979742    -3.769421
 H     3.611725    -0.979742     3.769421
 H     3.661623     3.662662    -1.063424
 H    -3.661623    -3.662662     1.063424
 H     3.348576    -2.529886    -4.284443
 H    -3.348576     2.529886     4.284443
 H    -3.248450     2.610461    -4.372497
 H     3.248450    -2.610461     4.372497
 H     3.194317     5.079417    -0.097033
 H    -3.194317    -5.079417     0.097033
