   66
FINAL HEAT OF FORMATION = -2158.041035
Cl     9.410762     8.854205     3.532283
Cl     4.447025    10.665877     0.088156
 C     7.105864    10.707885     0.775074
 C     7.706158    11.977207     0.218415
 C     9.156136    11.313566     0.855591
 C     8.217002    10.332125     1.549143
 C     8.126547     9.268245     2.414247
 C     6.940202     8.458814     2.418558
 C     6.831743     7.262965     3.180517
 C     5.700107     6.476557     3.130341
 C     4.602007     6.854763     2.326395
 C     4.658614     8.016540     1.589086
 C     5.816363     8.840952     1.601179
 C     5.906183    10.038947     0.826459
 C     6.971601    13.165668     0.923311
 C     6.102534    12.937509     2.008303
 C     5.351598    13.962134     2.581543
 C     5.438925    15.263934     2.087776
 C     6.286478    15.514079     1.009295
 C     7.028082    14.480369     0.433731
 C     7.653839    12.251981    -1.281661
 C     6.689804    11.677319    -2.122618
 C     6.646223    11.972789    -3.486113
 C     7.566025    12.857095    -4.051863
 C     8.527387    13.445217    -3.229354
 C     8.562999    13.146523    -1.866111
 C    10.009884    12.247533     1.801831
 C    10.346230    13.588453     1.124477
 C    11.339398    11.635361     2.298487
 C     9.215617    12.553197     3.092161
 C     9.967436    10.405011    -0.243566
 C     9.082421     9.716232    -1.321595
 C    11.049546    11.180125    -1.020974
 C    10.651259     9.200285     0.454827
 H     7.676265     6.961124     3.798176
 H     5.655402     5.552636     3.711385
 H     3.710241     6.225009     2.284175
 H     3.816680     8.313540     0.964176
 H     6.001819    11.939610     2.428598
 H     4.685761    13.730610     3.416254
 H     4.844795    16.067677     2.528301
 H     6.363114    16.520375     0.590931
 H     7.635206    14.714344    -0.436481
 H     5.972090    10.966204    -1.727716
 H     5.887251    11.496805    -4.111966
 H     7.535059    13.084484    -5.119994
 H     9.260393    14.139556    -3.647164
 H     9.324927    13.613871    -1.248866
 H     9.442468    14.145675     0.856760
 H    10.963896    13.461311     0.227200
 H    10.915308    14.216704     1.827219
 H    12.055704    11.420466     1.498500
 H    11.816079    12.364405     2.972036
 H    11.174198    10.720188     2.878110
 H     9.832812    13.177766     3.756223
 H     8.970477    11.633241     3.640046
 H     8.287854    13.095734     2.901648
 H     8.161296     9.275214    -0.917724
 H     8.815761    10.373330    -2.151347
 H     9.669274     8.889234    -1.749492
 H    10.631022    12.014102    -1.592242
 H    11.512931    10.494868    -1.748041
 H    11.854745    11.560207    -0.382305
 H    11.342680     8.735154    -0.264235
 H    11.225077     9.450788     1.347140
 H     9.916017     8.432403     0.729964
