   66
FINAL HEAT OF FORMATION = -1140.142442
 N     5.809869     7.800334     4.033416
 C     5.645102     7.143698     2.767736
 C     4.869839     8.691287     4.536175
 C     5.094766     5.851058     2.702599
 C     4.904047     5.264454     1.442073
 H     4.461176     4.265238     1.394913
 C     6.078564     7.791003     1.585538
 C     5.885515     7.156688     0.357768
 H     6.218136     7.662361    -0.553227
 C     5.275011     5.898615     0.258140
 C     4.730926     5.042407     3.919589
 H     5.068697     5.522338     4.842124
 H     5.182610     4.039909     3.854952
 H     3.640204     4.898803     3.987843
 B     3.232177     8.167850     4.653438
 H     2.938861     7.116262     4.180943
 B     5.045039    10.358016     4.574696
 H     6.041692    10.793905     4.081220
 C     5.039940     5.260682    -1.087374
 H     5.958683     5.255089    -1.695748
 H     4.279018     5.817523    -1.660019
 H     4.689737     4.222937    -0.988487
 C     6.749537     9.138423     1.626053
 H     6.040758     9.934706     1.895478
 H     7.178623     9.385801     0.645485
 H     7.564205     9.175419     2.366775
 B     3.762502     9.557732     3.641462
 H     3.795223     9.411526     2.458124
 B     2.262461     9.661461     4.574514
 H     1.206883     9.688520     4.009583
 B     3.408094    11.036206     4.576262
 H     3.185632    12.069258     4.011337
 H     6.762547     8.072441     4.251781
 N     4.303714     6.939077     6.724171
 C     4.937714     6.755869     8.004033
 C     3.970660     8.177306     6.192673
 C     6.329163     6.571877     8.091123
 C     6.898906     6.373300     9.358167
 H     7.981425     6.234094     9.427135
 C     4.126452     6.666704     9.158701
 C     4.738170     6.450902    10.393764
 H     4.109862     6.378637    11.285841
 C     6.127314     6.317720    10.518488
 C     7.221932     6.534784     6.878889
 H     6.641452     6.486134     5.952938
 H     7.891537     5.661852     6.924613
 H     7.861660     7.431057     6.829265
 B     5.209455     9.369035     6.061353
 H     6.268480     9.134130     6.551147
 B     2.419936     8.814911     6.113696
 H     1.554626     8.158976     6.610157
 C     6.756646     6.114738    11.871544
 H     6.191803     5.382723    12.469870
 H     6.770796     7.057987    12.443821
 H     7.794547     5.761509    11.786284
 C     2.625722     6.774102     9.071755
 H     2.307863     7.791890     8.803818
 H     2.160936     6.516648    10.033170
 H     2.204476     6.102487     8.306388
 B     3.720120     9.583767     7.048272
 H     3.813930     9.512150     8.235506
 B     4.355420    10.932812     6.093359
 H     4.825278    11.887248     6.643780
 B     2.601623    10.577357     6.075723
 H     1.792104    11.276265     6.615935
 H     3.629008     6.220206     6.483961
