   58
FINAL HEAT OF FORMATION = -1978.648480
 I    -1.572261    -0.234033     5.078998
 I     0.932114    -3.989254    -0.380517
 C     0.889701    -3.035719     4.518394
 C     1.062453    -4.111496     3.269058
 C     0.546762    -2.972872     2.429155
 C     0.228926    -2.687431     1.136817
 C    -0.665674    -1.593512     0.894547
 C    -1.103778    -1.263694    -0.414910
 C    -2.069820    -0.307041    -0.634829
 C    -2.636369     0.381741     0.458554
 C    -2.218569     0.109490     1.745131
 C    -1.232126    -0.873604     2.021810
 C    -0.814534    -1.204148     3.358744
 C     0.079995    -2.218908     3.521951
 C     0.437685    -3.500775     5.880343
 C    -0.721729    -4.180749     6.244095
 C    -0.912424    -4.524392     7.587131
 C     0.043740    -4.187733     8.551332
 C     1.204738    -3.495022     8.192203
 C     1.398617    -3.149519     6.854552
 C     2.467026    -2.379254     6.203179
 C     3.580582    -1.717333     6.721135
 C     4.373891    -0.953587     5.858422
 C     4.052348    -0.839057     4.500171
 C     2.935771    -1.501291     3.979529
 C     2.168840    -2.284708     4.832649
 C     0.033607    -5.234172     3.278370
 C    -1.351845    -5.173387     3.137233
 C    -2.093167    -6.362496     3.150349
 C    -1.453972    -7.599969     3.287922
 C    -0.060734    -7.668491     3.372523
 C     0.677662    -6.482446     3.345619
 C     2.119723    -6.260033     3.234386
 C     3.156734    -7.186657     3.150233
 C     4.446595    -6.723720     2.876470
 C     4.676270    -5.359482     2.669955
 C     3.632533    -4.429858     2.768633
 C     2.353960    -4.875833     3.080708
 H    -0.678341    -1.814428    -1.255097
 H    -2.402574    -0.092974    -1.653181
 H    -3.412893     1.130242     0.286270
 H    -2.663992     0.645342     2.583236
 H    -1.476413    -4.442838     5.504440
 H    -1.819791    -5.056725     7.881987
 H    -0.122779    -4.461494     9.595718
 H     1.941299    -3.220703     8.949816
 H     3.815075    -1.773482     7.785942
 H     5.242115    -0.420924     6.252524
 H     4.666608    -0.216893     3.845461
 H     2.660743    -1.393548     2.927822
 H    -1.864070    -4.218442     3.005754
 H    -3.179522    -6.323852     3.041103
 H    -2.044841    -8.519232     3.299279
 H     0.439944    -8.638029     3.428275
 H     2.958704    -8.254260     3.272534
 H     5.275241    -7.431859     2.802568
 H     5.681567    -5.011113     2.423556
 H     3.827349    -3.376246     2.585748
