   62
FINAL HEAT OF FORMATION = -1981.038359
 I     3.132121     1.827279     6.616552
 I     6.934180     2.720425     0.688746
 C     2.963316     0.668712     3.108003
 C     3.745789     1.060292     1.638184
 C     4.730000     1.813599     2.551755
 C     5.885908     2.535330     2.526937
 C     6.344029     3.123049     3.756458
 C     7.516400     3.917399     3.816539
 C     7.918452     4.522592     4.986282
 C     7.158467     4.354144     6.163620
 C     6.016460     3.582347     6.148266
 C     5.565590     2.941364     4.966690
 C     4.380683     2.128099     4.931790
 C     4.027303     1.554638     3.747498
 C     3.090929    -0.810832     3.392535
 C     3.872114    -1.303853     4.440502
 C     4.035044    -2.679412     4.635089
 C     3.419324    -3.589056     3.776908
 C     2.633148    -3.111212     2.724035
 C     2.473728    -1.741144     2.537300
 C     1.548702     1.209977     3.280423
 C     1.319238     2.593840     3.188876
 C     0.037134     3.124792     3.300997
 C    -1.056120     2.282849     3.523853
 C    -0.842854     0.910507     3.647573
 C     0.445366     0.381468     3.531290
 C     4.359251    -0.119471     0.883272
 C     5.402642    -0.853284     1.470852
 C     5.922868    -1.994701     0.865133
 C     5.422155    -2.430035    -0.364218
 C     4.415193    -1.691098    -0.983696
 C     3.896736    -0.547356    -0.371601
 C     2.832141     1.883899     0.744483
 C     1.600545     1.333801     0.341128
 C     0.714373     2.044571    -0.461848
 C     1.036569     3.337681    -0.884553
 C     2.253018     3.896684    -0.495922
 C     3.140724     3.174769     0.310748
 H     8.092443     4.050782     2.900180
 H     8.822387     5.135077     4.997960
 H     7.474122     4.836677     7.090747
 H     5.430264     3.451200     7.057962
 H     4.374960    -0.607899     5.109491
 H     4.655006    -3.037076     5.460456
 H     3.553081    -4.663804     3.921025
 H     2.152906    -3.809729     2.034823
 H     1.880388    -1.392696     1.692312
 H     2.154710     3.267346     3.006390
 H    -0.109656     4.203249     3.210707
 H    -2.064010     2.695564     3.611447
 H    -1.682544     0.238806     3.843413
 H     0.582812    -0.692044     3.647819
 H     5.801592    -0.539451     2.433801
 H     6.720858    -2.551488     1.361200
 H     5.821182    -3.329649    -0.838902
 H     4.024326    -2.000951    -1.956271
 H     3.118642     0.008451    -0.889905
 H     1.315528     0.338441     0.679404
 H    -0.238398     1.591438    -0.745694
 H     0.340514     3.903426    -1.508278
 H     2.519627     4.905983    -0.817740
 H     4.082592     3.633295     0.607172
