   74
FINAL HEAT OF FORMATION = -1244.047295
 C     0.835328     5.549629     9.037974
 C     1.600375     5.623046     7.663549
 C     0.871056     3.983783     9.686655
 C     1.834370     7.073768     7.184318
 C    -0.463799     3.726069    10.434473
 C    -0.584219     6.243006     8.710203
 C     2.058520     3.791997    10.708889
 C    -1.488967     6.498988     9.938304
 C     1.723473     7.943357     9.509831
 C     3.567414     2.585814     9.069594
 C     1.485898     6.529187    10.085292
 C    -0.327386     7.709976     8.166781
 C    -1.318632     5.493665     7.582504
 C     1.914876     2.460707    11.500700
 C     0.925036     1.391163     9.499698
 C     0.623853     6.690496    11.354759
 C     0.474943     7.718036     6.867050
 C     1.066583     2.737847     8.716018
 C     0.364645     8.594442     9.210818
 C     2.060131     1.270480    10.536908
 C    -0.551504     2.404460    11.196307
 C     3.437574     3.784792    10.021094
 C     3.434562     1.286967     9.868903
 C     2.444954     2.635574     8.023613
 C    -0.511870     5.524688     6.271589
 C    -0.422381     1.255675    10.201106
 C    -0.742619     7.310868    11.016171
 C     0.575330     2.366586    12.231331
 C     2.575429     7.882134     8.245391
 C    -0.488788     8.719960    10.471928
 C     0.866138     4.903898     6.509742
 C    -0.302307     6.962020     5.790941
 H     2.474101     6.152757    10.370145
 H     4.546319     2.618666     8.562968
 H    -1.530008     2.360165    11.703879
 H    -1.245044     1.299191     9.466966
 H     3.549308     7.412300     8.466110
 H     0.753092     3.834764     6.678132
 H     0.527464     9.593981     8.771079
 H     2.248315     8.532312    10.282023
 H     3.613634     4.722048     9.475721
 H     1.155223     7.361838    12.050949
 H     4.227501     1.216179    10.633036
 H     3.546252     0.415789     9.201358
 H    -1.328894     8.125458     7.958294
 H    -2.350270     7.094492     9.589407
 H    -1.442765     9.219949    10.234111
 H     0.534557     1.435996    12.822604
 H     0.504903     5.744465    11.892864
 H     2.041342     4.587969    11.459564
 H     0.463208     3.204566    12.940579
 H     2.783816     8.900579     7.875933
 H     2.595174     5.186715     7.796742
 H     4.221259     3.726936    10.795864
 H     0.261201     2.735072     7.969284
 H     2.737909     2.430006    12.236054
 H     0.249786     6.961917     4.835863
 H    -1.268440     7.463146     5.609285
 H    -1.515816     4.450109     7.871282
 H     2.442312     7.025155     6.264318
 H    -0.489715     0.277500    10.707336
 H    -1.289273     3.764808     9.712700
 H    -1.049027     4.945578     5.501798
 H     0.026663     9.339852    11.225105
 H    -0.638741     4.517407    11.160969
 H     2.459475     1.705484     7.430094
 H     2.633354     3.440018     7.312396
 H    -1.922513     5.586440    10.348977
 H    -1.360003     7.363928    11.928394
 H     0.631038     8.764141     6.550109
 H     1.031326     0.582904     8.755990
 H     1.477841     5.004577     5.596717
 H    -2.304629     5.964452     7.423222
 H     1.931252     0.329611    11.100147
