   23
FINAL HEAT OF FORMATION =  -739.647230
 C     7.924339     5.732769     9.780399
 C     8.113542     7.021292    10.257501
 C     7.047135     7.923926    10.228768
 C     5.813197     7.507614     9.717451
 C     5.677541     6.210039     9.254739
 N     6.721885     5.349505     9.292940
 C     6.531201     3.983709     8.773683
 C     7.516861     2.810832     8.939004
 C     5.366681     3.033622     9.137176
 C     6.351573     3.598485     7.284925
 C     6.292013     2.293438     8.129439
 I     6.020656     0.328123     7.387364
 H     8.709686     4.977291     9.777028
 H     9.090606     7.305347    10.650228
 H     7.173645     8.941811    10.603196
 H     4.954801     8.179746     9.678726
 H     4.744772     5.817790     8.848598
 H     7.638022     2.399439     9.950499
 H     8.464907     2.867763     8.386507
 H     4.366404     3.296053     8.766039
 H     5.347886     2.644155    10.163792
 H     7.226976     3.721770     6.633465
 H     5.415471     3.906381     6.799431
