   50
FINAL HEAT OF FORMATION =  -980.519470
 B     5.748458     3.541744     3.612811
 B     4.202963     4.423280     3.624778
 B     3.586972     4.414889     5.288086
 B     5.737390     5.311217     3.600173
 B     4.395038     5.858796     4.649066
 C     4.452818     3.092231     4.656431
 C     2.744858     1.659311     4.007296
 H     2.099932     2.517590     3.750649
 N     3.927119     1.814919     4.459995
 C     2.157144     0.332179     3.800660
 C     0.850568     0.230784     3.296458
 H     0.291721     1.140559     3.061765
 C     0.265372    -1.020465     3.096465
 H    -0.751623    -1.092048     2.704555
 C     0.982772    -2.179980     3.399983
 H     0.526130    -3.160562     3.245195
 C     2.287378    -2.087330     3.903378
 H     2.844997    -2.996542     4.140048
 C     2.873079    -0.841098     4.103170
 H     3.886711    -0.744634     4.495207
 H     2.426280     4.234745     5.508385
 H     6.064286     2.755580     2.776890
 H     3.466108     4.250884     2.699803
 H     6.095056     5.898741     2.620265
 H     3.775108     6.858770     4.424572
 B     4.754810     3.527966     6.295560
 B     6.284304     4.437865     6.286820
 B     6.899839     4.447016     4.622966
 B     4.732682     5.296660     6.314567
 B     6.064528     5.873176     5.267480
 C     6.060440     3.106165     5.250869
 C     7.800786     1.682546     5.860521
 H     8.464215     2.538769     6.073815
 N     6.602926     1.838106     5.450422
 C     8.369298     0.348099     6.076022
 C     9.696300     0.220716     6.515546
 H    10.293511     1.119131     6.691982
 C    10.250352    -1.043124     6.726271
 H    11.283368    -1.136897     7.068040
 C     9.480282    -2.186643     6.499869
 H     9.912314    -3.176510     6.665362
 C     8.154431    -2.067184     6.061410
 H     7.555802    -2.964198     5.886166
 C     7.599991    -0.809223     5.849742
 H     6.570174    -0.689036     5.509089
 H     8.063817     4.292219     4.400715
 H     4.452768     2.732842     7.128153
 H     7.024965     4.274354     7.210465
 H     4.363804     5.873297     7.296890
 H     6.665456     6.883929     5.494873
