   55
FINAL HEAT OF FORMATION = -1021.015153
 B     0.357489     0.749052    12.626555
 H    -0.813757     0.957068    12.568807
 B     1.217842     0.293532    14.080799
 H     0.592141     0.076963    15.075155
 B     2.707720     1.282089    14.190405
 H     3.076705     1.678056    15.254601
 B     2.836995     2.347573    12.793013
 H     3.128435     3.499831    12.858033
 B     2.867264     1.404886    11.316542
 H     3.316927     1.895987    10.324480
 B     1.354903     0.446272    11.212024
 H     0.821910     0.302821    10.153579
 B     1.322109    -0.696897    12.596510
 H     0.782804    -1.762215    12.511076
 B     3.748285     0.872545    12.784833
 H     4.942647     0.917595    12.856025
 B     2.861715    -0.309927    11.784141
 H     3.437448    -1.123921    11.121178
 B     2.774294    -0.394505    13.578093
 H     3.295842    -1.262049    14.217610
 N     0.501191     3.028785    13.913589
 N     0.684109     3.180523    11.553825
 C     1.282954     1.918221    13.513519
 C     1.382199     1.999359    11.915566
 C    -0.091467     3.644632    12.724462
 H    -0.055588     4.740708    12.807472
 H    -1.155058     3.353717    12.611239
 C    -0.035066     3.178772    10.290953
 H    -0.908161     2.495247    10.322713
 H     0.648920     2.787528     9.521842
 C    -0.492367     4.569339     9.911060
 C     0.389244     5.656637     9.997440
 H     1.403399     5.488278    10.367135
 C    -0.028240     6.935233     9.626437
 H     0.666200     7.775708     9.698430
 C    -1.331475     7.142462     9.161983
 H    -1.657870     8.143968     8.872227
 C    -2.214846     6.064719     9.074840
 H    -3.236043     6.219166     8.718331
 C    -1.796776     4.785813     9.452577
 H    -2.493215     3.944856     9.392672
 C     1.007030     3.919235    14.948724
 H     1.809009     4.582664    14.570146
 H     1.460650     3.287859    15.727372
 C    -0.103886     4.748605    15.554018
 C     0.096821     6.101760    15.850464
 H     1.058334     6.567437    15.617639
 C    -0.921596     6.860169    16.435077
 H    -0.751933     7.915692    16.660198
 C    -2.155488     6.272221    16.721174
 H    -2.954579     6.864923    17.172575
 C    -2.366186     4.922646    16.420523
 H    -3.330916     4.457808    16.638392
 C    -1.347466     4.166177    15.840829
 H    -1.509653     3.114175    15.595500
