   68
scf done: -1607.403646
 C     1.572515     0.000188     1.084183
 C     2.451772     0.000261     2.166958
 C     3.878625     0.000318     1.982179
 C     4.425439     0.000320     0.703459
 C     3.505732     0.000273    -0.365899
 C     4.123551     0.000099    -1.634832
 C     3.275532    -0.000113    -2.737107
 C     1.846069    -0.000113    -2.559560
 C     1.285051     0.000027    -1.294059
 C     2.149876     0.000194    -0.192414
 C     5.758136     0.000167     0.036773
 C     5.581460     0.000098    -1.325790
 C     0.036098     0.000001     0.952415
 C    -0.562605     1.266793     1.576851
 C     0.259217     2.222456     2.191701
 C    -0.229672     3.452072     2.622071
 C    -1.570931     3.774969     2.418872
 C    -2.404717     2.840575     1.822373
 C    -1.935354     1.573594     1.425369
 C    -2.919674     0.671148     0.848967
 C    -2.919549    -0.671724     0.848949
 C    -1.935016    -1.574005     1.425237
 C    -2.404114    -2.841145     1.822142
 C    -1.570141    -3.775411     2.418500
 C    -0.228905    -3.452241     2.621692
 C     0.259696    -2.222511     2.191470
 C    -0.562365    -1.266902     1.576712
 C    -0.176206     0.000059    -0.805318
 C    -0.763135     1.353422    -1.231331
 C     0.057623     2.448830    -0.898949
 C    -0.334575     3.767450    -1.073049
 C    -1.581072     4.043111    -1.636073
 C    -2.384275     2.985458    -2.023144
 C    -2.008055     1.631363    -1.837085
 C    -2.990129     0.670551    -2.312384
 C    -2.990272    -0.670488    -2.312106
 C    -2.008236    -1.631306    -1.836757
 C    -2.384424    -2.985376    -2.022712
 C    -1.581043    -4.043023    -1.635841
 C    -0.334422    -3.767312    -1.073217
 C     0.057753    -2.448634    -0.899207
 C    -0.763156    -1.353314    -1.231277
 H     2.068025     0.000232     3.180375
 H     4.506631     0.000358     2.865827
 H     3.665427    -0.000233    -3.748585
 H     1.211401    -0.000244    -3.436759
 H     6.708732     0.000161     0.548116
 H     1.314409     2.022780     2.287974
 H     0.444136     4.165262     3.081864
 H    -1.958295     4.741272     2.718232
 H    -3.450191     3.073874     1.656354
 H    -3.788115     1.165830     0.425985
 H    -3.787930    -1.166551     0.425984
 H    -3.449564    -3.074599     1.656129
 H    -1.957277    -4.741814     2.717826
 H     0.445053    -4.165389     3.081328
 H     1.314837    -2.022564     2.287766
 H     1.026377     2.253101    -0.466405
 H     0.323293     4.568870    -0.761830
 H    -1.912663     5.064518    -1.777389
 H    -3.344966     3.183331    -2.485657
 H    -3.867817     1.141744    -2.748785
 H    -3.868085    -1.141674    -2.748274
 H    -3.345199    -3.183344    -2.484999
 H    -1.912664    -5.064427    -1.777115
 H     0.323616    -4.568669    -0.762178
 H     1.026650    -2.252883    -0.466933
 H     6.371577    -0.000015    -2.061414
