   66
FINAL HEAT OF FORMATION = -1531.634975
 C     8.031727    12.036592    17.387359
 C     7.933644    11.487627    18.649996
 C     7.517096    11.909467    21.116126
 H     8.211687    11.391188    16.535434
 H     8.034109    10.417762    18.792546
 H     7.603429    10.857284    21.361720
 C     7.675057    14.281604    18.227463
 C     7.900933    13.432690    17.160728
 C     7.684470    12.325793    19.768455
 C     7.232087    12.839831    22.096841
 C     7.099871    14.225620    21.806428
 C     7.275136    14.646237    20.512957
 C     7.564999    13.712807    19.512677
 C     7.530115    15.801723    18.269093
 C     6.401908    16.319790    17.366787
 C     5.667025    15.463422    16.536966
 C     4.530094    15.890609    15.857951
 C     4.075233    17.198684    16.018321
 C     4.797017    18.067815    16.822627
 C     5.978544    17.664769    17.471507
 C     6.674286    18.680160    18.245782
 C     7.996159    18.769914    18.465545
 C     9.028068    17.868004    17.976576
 C     8.838379    16.478199    17.806265
 C     7.166913    16.046503    19.910852
 C     5.679865    16.398140    20.039112
 C     4.819800    15.433007    19.476988
 C     3.445874    15.602374    19.407628
 C     2.869212    16.752679    19.948035
 C     3.688740    17.687779    20.554722
 C     5.096615    17.538878    20.618544
 C     5.792527    18.613036    21.312553
 C     7.090082    18.797968    21.607220
 C     8.271191    18.001630    21.312254
 C     8.310084    16.801473    20.584806
 H     7.988671    13.811871    16.149930
 H     7.095867    12.506042    23.118328
 H     6.858297    14.927991    22.592241
 H     5.940743    14.422127    16.473146
 H     3.979703    15.190573    15.240328
 H     3.168238    17.531890    15.528586
 H     4.457518    19.087789    16.960691
 H     6.044381    19.482660    18.613844
 H     8.361457    19.641338    18.997595
 H     5.245227    14.529600    19.067098
 H     2.833463    14.845031    18.934101
 H     1.797735    16.906541    19.906625
 H     3.250909    18.571782    21.004708
 H     5.116266    19.384209    21.674655
 H     7.317390    19.697639    22.174235
 H     9.572860    15.196845    19.925798
 C    10.280030    18.433789    17.680338
 C    11.314238    17.673154    17.155184
 C    11.108703    16.312115    16.930382
 C     9.891751    15.729071    17.265974
 C     9.490520    18.521639    21.811986
 C    10.704762    17.888398    21.611012
 C    10.731318    16.675368    20.919393
 C     9.546620    16.144612    20.440862
 H    10.417527    19.493855    17.857923
 H    12.266897    18.132481    16.922392
 H    11.900403    15.697111    16.519528
 H     9.778016    14.663892    17.148415
 H     9.453551    19.449515    22.371504
 H    11.618287    18.322766    21.997624
 H    11.662418    16.149070    20.752370
