   70
FINAL HEAT OF FORMATION = -1608.635676
 H     6.274791     6.057172    23.026523
 C     7.939117     4.648558    25.398157
 C     8.156167     6.030928    25.508411
 C     7.246530     6.846815    24.816998
 C     7.427259     8.213813    24.903022
 C     6.712499     4.442223    24.501268
 C     6.245165     5.918633    24.111813
 H     6.761536     8.901747    24.395467
 H     6.968515     3.868677    23.604411
 H     5.915651     3.911008    25.031761
 H     5.221570     6.099208    24.454821
 H    12.769404     7.658280    23.143470
 C    10.097709     5.716454    26.934887
 C     9.888455     4.345067    26.839809
 C     8.804207     3.804783    26.067443
 C     8.516575     8.750165    25.670582
 C     9.391935     7.914670    26.334151
 C     9.196344     6.542525    26.250958
 C    11.153010     6.583199    27.629626
 C    11.129537     6.389009    29.153865
 C    10.277906     5.446634    29.744428
 C    10.122189     5.361897    31.123541
 C    10.805066     6.250093    31.954416
 C    11.663062     7.182052    31.388173
 C    11.868285     7.246772    29.997800
 C    12.816153     8.238639    29.514010
 C    13.575654     8.184822    28.406927
 C    13.642640     7.122392    27.415051
 C    14.860794     6.972191    26.726977
 C    15.042498     5.976889    25.777739
 C    13.988691     5.108293    25.494723
 C    12.763891     5.274042    26.132439
 C    12.555146     6.282922    27.082415
 C    10.631888     8.180640    27.178219
 C    10.089614     8.899634    28.413602
 C     9.021239     8.215722    29.026802
 C     8.430208     8.654685    30.198915
 C    12.664209     8.312124    23.999801
 C    11.773141     7.987051    25.008469
 C    11.622130     8.769991    26.170835
 H    10.549132     3.649642    27.344153
 H     8.687090     2.727846    26.022185
 H     9.682725     4.806530    29.111205
 H     9.444316     4.627159    31.541695
 H    10.666343     6.216164    33.027954
 H    12.201380     7.879216    32.019206
 H    12.955575     9.089250    30.172535
 H    14.276818     8.996533    28.244754
 H    15.668242     7.657187    26.957081
 H    15.989184     5.881044    25.260339
 H    14.104604     4.326550    24.753226
 H    11.936455     4.646754    25.839336
 H     8.656703     7.307508    28.570885
 H     7.634943     8.075007    30.650435
 H    11.178022     7.093205    24.901768
 H    14.118265     9.759937    23.323681
 C     8.873139     9.842834    30.783905
 C     9.882727    10.559282    30.165435
 C    10.509835    10.115466    28.974735
 C    11.540683    10.998974    28.452171
 C    12.292912    10.938447    27.340800
 C    12.351869     9.966387    26.259879
 C    13.243655    10.294359    25.208306
 C    13.417375     9.482961    24.101614
 H     8.644704     9.823613    25.715244
 H     8.425497    10.206536    31.700593
 H    10.215117    11.497926    30.594122
 H    11.702645    11.872897    29.078851
 H    12.977611    11.770682    27.194617
 H    13.802514    11.220005    25.287944
