  212
scf done: -3335.536836
 C     0.817388     0.014646     0.015123
 C    -0.817388    -0.014646    -0.015123
 C     1.441322     0.343782    -1.376171
 C    -1.441322    -0.343782     1.376171
 C    -1.439753     1.350141    -0.443970
 C     1.439753    -1.350141     0.443970
 C     1.382220     1.069316     1.012866
 C    -1.382220    -1.069316    -1.012866
 C     0.969972     1.098693     2.349474
 C    -0.969972    -1.098693    -2.349474
 C    -1.021711    -1.450775     2.130630
 C     1.021711     1.450775    -2.130630
 C     1.033169    -2.556388    -0.135353
 C    -1.033169     2.556388     0.135353
 C     2.442236     1.896458     0.638299
 C    -2.442236    -1.896458    -0.638299
 C    -2.525504     0.392253     1.846338
 C     2.525504    -0.392253    -1.846338
 C     2.536457    -1.378916     1.307487
 C    -2.536457     1.378916    -1.307487
 C     1.554614     1.955104     3.283067
 C    -1.554614    -1.955104    -3.283067
 C    -1.623863    -1.782010     3.342554
 C     1.623863     1.782010    -3.342554
 C     1.655418    -3.767424     0.172693
 C    -1.655418     3.767424    -0.172693
 C     3.082241     2.738676     1.556070
 C    -3.082241    -2.738676    -1.556070
 C    -3.188383     0.059612     3.036175
 C     3.188383    -0.059612    -3.036175
 C     3.215131    -2.566957     1.602164
 C    -3.215131     2.566957    -1.602164
 C     2.616048     2.776493     2.874323
 C    -2.616048    -2.776493    -2.874323
 C    -2.720829    -1.020345     3.783312
 C     2.720829     1.020345    -3.783312
 C     2.756329    -3.761661     1.040473
 C    -2.756329     3.761661    -1.040473
 H     0.196307     0.428056     2.670631
 H    -0.196307    -0.428056    -2.670631
 H    -0.212722    -2.049392     1.761809
 H     0.212722     2.049392    -1.761809
 H     0.219657    -2.549414    -0.836186
 H    -0.219657     2.549414     0.836186
 H     2.800762     1.858301    -0.376929
 H    -2.800762    -1.858301     0.376929
 H    -2.880681     1.229574     1.270636
 H     2.880681    -1.229574    -1.270636
 H     2.887606    -0.455944     1.737427
 H    -2.887606     0.455944    -1.737427
 C     1.042379     1.901904     4.732254
 C    -1.042379    -1.901904    -4.732254
 C    -1.145088    -3.005202     4.141667
 C     1.145088     3.005202    -4.141667
 C     1.094077    -5.050166    -0.459156
 C    -1.094077     5.050166     0.459156
 C     4.320506     3.515881     1.081053
 C    -4.320506    -3.515881    -1.081053
 C    -4.418695     0.890156     3.429908
 C     4.418695    -0.890156    -3.429908
 C     4.453643    -2.488566     2.507166
 C    -4.453643     2.488566    -2.507166
 H     3.091901     3.427969     3.590539
 H    -3.091901    -3.427969    -3.590539
 H    -3.212394    -1.283483     4.707991
 H     3.212394     1.283483    -4.707991
 H     3.256477    -4.688692     1.273020
 H    -3.256477     4.688692    -1.273020
 C     5.026895    -0.430070    -4.770181
 C    -5.026895     0.430070     4.770181
 C    -5.068220     3.877157    -2.776213
 C     5.068220    -3.877157     2.776213
 C     4.908005     4.411230     2.190904
 C    -4.908005    -4.411230    -2.190904
 C     5.487659    -0.731646    -2.316860
 C    -5.487659     0.731646     2.316860
 C    -5.515787     1.601518    -1.807118
 C     5.515787    -1.601518     1.807118
 C     5.398048     2.483294     0.654495
 C    -5.398048    -2.483294    -0.654495
 C     4.020641    -2.382628    -3.555383
 C    -4.020641     2.382628     3.555383
 C    -4.061296     1.850737    -3.862707
 C     4.061296    -1.850737     3.862707
 C     3.957795     4.408492    -0.131212
 C    -3.957795    -4.408492     0.131212
 C     1.181219     2.715499    -5.661563
 C    -1.181219    -2.715499     5.661563
 C    -1.860796     6.308340     0.005819
 C     1.860796    -6.308340    -0.005819
 C     1.709677     2.967632     5.624777
 C    -1.709677    -2.967632    -5.624777
 C    -0.301747     3.398909    -3.765189
 C     0.301747    -3.398909     3.765189
 C     0.392111     5.192659     0.045372
 C    -0.392111    -5.192659    -0.045372
 C    -0.489816     2.127980     4.749846
 C     0.489816    -2.127980    -4.749846
 C     2.091241     4.187184    -3.812757
 C    -2.091241    -4.187184     3.812757
 C    -1.183433     4.935972     2.001300
 C     1.183433    -4.935972    -2.001300
 C     1.353595     0.498106     5.310570
 C    -1.353595    -0.498106    -5.310570
 H     0.793895     3.583534    -6.206538
 H    -0.793895    -3.583534     6.206538
 H    -1.412785     7.190945     0.474770
 H     1.412785    -7.190945    -0.474770
 H     1.294398     2.901597     6.636137
 H    -1.294398    -2.901597    -6.636137
 H     2.199475     2.523305    -6.012380
 H    -2.199475    -2.523305     6.012380
 H    -2.913679     6.257651     0.304763
 H     2.913679    -6.257651    -0.304763
 H     2.791882     2.809513     5.688692
 H    -2.791882    -2.809513    -5.688692
 H     0.559213     1.845546    -5.895117
 H    -0.559213    -1.845546     5.895117
 H    -1.804958     6.430256    -1.081598
 H     1.804958    -6.430256     1.081598
 H     1.519202     3.974727     5.237427
 H    -1.519202    -3.974727    -5.237427
 H     1.791217     5.081873    -4.371471
 H    -1.791217    -5.081873     4.371471
 H    -0.798805     5.851294     2.466499
 H     0.798805    -5.851294    -2.466499
 H     0.982329     0.426517     6.340041
 H    -0.982329    -0.426517    -6.340041
 H     2.050682     4.408736    -2.741171
 H    -2.050682    -4.408736     2.741171
 H    -0.590424     4.089839     2.358486
 H     0.590424    -4.089839    -2.358486
 H     0.870143    -0.278852     4.711194
 H    -0.870143     0.278852    -4.711194
 H     3.124053     3.934255    -4.075632
 H    -3.124053    -3.934255     4.075632
 H    -2.223372     4.788096     2.311254
 H     2.223372    -4.788096    -2.311254
 H     2.433017     0.316906     5.308566
 H    -2.433017    -0.316906    -5.308566
 H    -0.628645     4.223692    -4.408583
 H     0.628645    -4.223692     4.408583
 H     0.815529     6.106459     0.479714
 H    -0.815529    -6.106459    -0.479714
 H    -0.856941     2.083059     5.782407
 H     0.856941    -2.083059    -5.782407
 H    -0.982160     2.553580    -3.904835
 H     0.982160    -2.553580     3.904835
 H     0.479440     5.246438    -1.045282
 H    -0.479440    -5.246438     1.045282
 H    -0.731173     3.109681     4.331355
 H     0.731173    -3.109681    -4.331355
 H    -0.383278     3.728862    -2.726972
 H     0.383278    -3.728862     2.726972
 H     0.975652     4.338202     0.396454
 H    -0.975652    -4.338202    -0.396454
 H    -1.011217     1.366284     4.165953
 H     1.011217    -1.366284    -4.165953
 H     5.894842    -1.055097    -5.005959
 H    -5.894842     1.055097     5.005959
 H    -5.940655     3.764735    -3.428802
 H     5.940655    -3.764735     3.428802
 H     5.781015     4.944379     1.799418
 H    -5.781015    -4.944379    -1.799418
 H     4.299197    -0.529025    -5.583225
 H    -4.299197     0.529025     5.583225
 H    -4.346591     4.533833    -3.274573
 H     4.346591    -4.533833     3.274573
 H     4.173014     5.151528     2.525823
 H    -4.173014    -5.151528    -2.525823
 H     5.359322     0.612307    -4.714407
 H    -5.359322    -0.612307     4.714407
 H    -5.395505     4.350423    -1.844022
 H     5.395505    -4.350423     1.844022
 H     5.228266     3.813332     3.051057
 H    -5.228266    -3.813332    -3.051057
 H     6.388858    -1.298465    -2.578747
 H    -6.388858     1.298465     2.578747
 H    -6.419621     1.539111    -2.424594
 H     6.419621    -1.539111     2.424594
 H     6.308369     3.002521     0.332482
 H    -6.308369    -3.002521    -0.332482
 H     5.753929     0.324431    -2.197674
 H    -5.753929    -0.324431     2.197674
 H    -5.779719     2.027569    -0.833106
 H     5.779719    -2.027569     0.833106
 H     5.642678     1.825246     1.495426
 H    -5.642678    -1.825246    -1.495426
 H     5.108860    -1.100917    -1.358962
 H    -5.108860     1.100917     1.358962
 H    -5.131669     0.589481    -1.646503
 H     5.131669    -0.589481     1.646503
 H     5.037002     1.863697    -0.172477
 H    -5.037002    -1.863697     0.172477
 H     4.904149    -2.981892    -3.804791
 H    -4.904149     2.981892     3.804791
 H    -4.941396     1.784805    -4.513082
 H     4.941396    -1.784805     4.513082
 H     4.857140     4.915220    -0.500140
 H    -4.857140    -4.915220     0.500140
 H     3.597650    -2.757205    -2.618580
 H    -3.597650     2.757205     2.618580
 H    -3.658091     0.844715    -3.718197
 H     3.658091    -0.844715     3.718197
 H     3.535744     3.813753    -0.946404
 H    -3.535744    -3.813753     0.946404
 H     3.272506    -2.508026    -4.343906
 H    -3.272506     2.508026     4.343906
 H    -3.297663     2.458966    -4.358021
 H     3.297663    -2.458966     4.358021
 H     3.222252     5.163584     0.161458
 H    -3.222252    -5.163584    -0.161458
