   66
FINAL HEAT OF FORMATION = -2148.043184
Cl    14.182693     3.511028     8.485033
Cl    20.298847     5.569001     8.851101
 C    18.319491     3.632061     8.441167
 C    18.865313     2.194063     8.159179
 C    17.282511     1.677205     8.420191
 C    16.965890     3.189019     8.394739
 C    15.932893     4.061926     8.456506
 C    16.170189     5.459142     8.577123
 C    15.120293     6.408127     8.626022
 C    15.386811     7.747825     8.775121
 C    16.720481     8.194861     8.886732
 C    17.764005     7.298122     8.845358
 C    17.532473     5.910066     8.687011
 C    18.588574     4.947061     8.626646
 C    19.883227     1.664125     9.142188
 C    20.276334     2.431204    10.244075
 C    21.156709     1.923503    11.199197
 C    21.670794     0.634599    11.065057
 C    21.285319    -0.142971     9.971991
 C    20.396869     0.363989     9.028263
 C    19.359979     2.193844     6.630720
 C    18.320700     2.829837     5.671132
 C    20.640978     3.057450     6.576166
 C    19.744286     0.819372     6.021645
 C    16.688615     0.776790     7.349015
 C    15.627462     1.179300     6.530235
 C    15.051329     0.303036     5.609573
 C    15.520581    -1.003656     5.488052
 C    16.572790    -1.424097     6.301391
 C    17.143458    -0.544621     7.219590
 C    16.834362     1.075168     9.868634
 C    16.754836     2.189524    10.937036
 C    15.407793     0.467005     9.731373
 C    17.730506    -0.045033    10.453000
 H    14.103763     6.051204     8.545628
 H    14.571586     8.459766     8.808829
 H    16.923175     9.251611     9.005445
 H    18.784710     7.639206     8.928811
 H    19.886525     3.430629    10.355846
 H    21.438793     2.538147    12.045310
 H    22.356123     0.238073    11.804070
 H    21.660691    -1.153850     9.864480
 H    20.061949    -0.277828     8.229392
 H    17.986267     3.807667     6.021161
 H    18.802307     2.959712     4.695776
 H    17.455002     2.184083     5.540993
 H    21.390861     2.680252     7.277125
 H    21.051019     3.014007     5.561243
 H    20.428750     4.097067     6.815939
 H    18.931297     0.100955     6.083774
 H    19.962369     0.989043     4.960935
 H    20.649339     0.414474     6.477362
 H    15.235924     2.179723     6.618069
 H    14.230266     0.644836     4.990682
 H    15.073252    -1.684938     4.774463
 H    16.951034    -2.436839     6.223602
 H    17.955471    -0.893847     7.839196
 H    17.703227     2.723023    11.021250
 H    15.958513     2.899751    10.709190
 H    16.533698     1.723914    11.903778
 H    14.720908     1.162790     9.253513
 H    15.424175    -0.461131     9.156928
 H    15.038359     0.248440    10.739950
 H    17.185680    -0.481139    11.299014
 H    17.919052    -0.846817     9.739344
 H    18.679427     0.336543    10.818142
