   54
FINAL HEAT OF FORMATION = -1300.577788
 C     9.138957     5.488937    10.790503
 C     7.716869     6.208424    11.437437
 C     7.547149     4.311200     9.212840
 C     6.427951     4.869066     9.712005
 C     9.120688     3.991468    10.963338
 C     9.796224     3.259927    11.931036
 H    10.436462     3.767580    12.641059
 C     9.624671     1.870306    11.990316
 H    10.153050     1.297369    12.742698
 C     8.772023     1.219185    11.099193
 H     8.638376     0.145813    11.161932
 C     8.075299     1.951772    10.131907
 H     7.387460     1.464316     9.451594
 C     8.259177     3.323586    10.067847
 C     9.345069     5.853078     9.340335
 C    10.235453     6.795430     8.845293
 H    10.885565     7.331295     9.525329
 C    10.269140     7.055512     7.468648
 H    10.965338     7.788717     7.079704
 C     9.408036     6.389243     6.597028
 H     9.435382     6.608275     5.536310
 C     8.497874     5.447088     7.090220
 H     7.805824     4.940518     6.428490
 C     8.478396     5.182693     8.449929
 C     6.777424     5.180724    12.037027
 C     6.653177     4.870276    13.383913
 H     7.256721     5.394341    14.114079
 C     5.760041     3.866317    13.781016
 H     5.660892     3.625244    14.832530
 C     5.006278     3.170462    12.836554
 H     4.320954     2.394895    13.156702
 C     5.143219     3.460573    11.473579
 H     4.584821     2.907885    10.727954
 C     6.023230     4.457662    11.086199
 C     6.984461     7.058983    10.417191
 C     7.046699     8.440814    10.314645
 H     7.650803     9.004232    11.014804
 C     6.340210     9.088770     9.292872
 H     6.386797    10.168227     9.213501
 C     5.587491     8.357210     8.374968
 H     5.048963     8.871056     7.587867
 C     5.536514     6.959855     8.457800
 H     4.977074     6.379370     7.734492
 C     6.231458     6.324196     9.473239
 C     9.851360     6.302791    11.852814
 C    11.108554     6.535930    12.371917
 H    11.999643     6.072910    11.966653
 C    11.165633     7.408162    13.473693
 H    12.124360     7.627760    13.928077
 C    10.010334     7.996833    14.003905
 H    10.105232     8.658568    14.856471
 C     8.736128     7.745239    13.462336
 H     7.845985     8.196409    13.882223
 C     8.696310     6.887411    12.379684
