   23
FINAL HEAT OF FORMATION = -7330.321792
 C     7.922062     5.739369     9.811815
 C     8.108295     7.024950    10.290075
 C     7.051433     7.937305    10.235316
 C     5.824445     7.534657     9.696972
 C     5.680362     6.242039     9.230880
 N     6.720851     5.364102     9.292731
 C     6.530651     3.996880     8.776631
 C     7.541957     2.804788     8.920228
 C     5.365076     3.009041     9.161453
 C     6.322438     3.590839     7.266623
 C     6.289503     2.264310     8.120964
 I     6.022342     0.284950     7.381000
 H     8.693261     4.984430     9.828709
 H     9.068321     7.301422    10.701693
 H     7.178814     8.944990    10.607896
 H     4.985337     8.213484     9.641084
 H     4.759650     5.866994     8.808827
 H     7.668194     2.394932     9.921936
 H     8.463078     2.873264     8.341595
 H     4.369221     3.263441     8.798864
 H     5.383751     2.619275    10.178131
 H     7.185743     3.714554     6.614358
 H     5.375015     3.880886     6.813121
