   28
FINAL HEAT OF FORMATION =  -440.411972
 B     0.381698     6.633718     5.249154
 H     0.870345     6.068424     6.167540
 B    -2.041864     7.618310     4.000062
 H    -3.214169     7.733325     3.904943
 B    -1.246389     6.165490     4.692282
 H    -1.841476     5.234397     5.112253
 B    -0.988204     8.053721     2.576266
 H    -1.436893     8.439092     1.552090
 B     0.222234     5.883375     3.641369
 H     0.566837     4.791849     3.343715
 B     0.572525     8.410860     4.974972
 H     1.196360     9.113361     5.695796
 B     1.410734     7.236150     3.932972
 H     2.568025     7.017285     3.832572
 B     0.612380     8.670430     3.206828
 H     1.192117     9.498137     2.593182
 B    -1.008948     7.771192     5.441054
 H    -1.493285     8.016869     6.493290
 B    -0.901844     8.976479     4.097220
 H    -1.311578    10.083232     4.191170
 C     0.502975     7.145701     2.505238
 C    -1.323909     6.427504     3.032666
 N     0.925565     6.771554     1.257848
 N    -1.918559     5.631311     2.091506
 H    -1.865945     4.623939     2.175886
 H    -2.558606     6.035097     1.419329
 H     0.823409     7.409402     0.478506
 H     1.509565     5.952296     1.147591
