   50
FINAL HEAT OF FORMATION =  -975.786960
 B     5.754252     3.624933     3.595789
 B     4.190248     4.515837     3.614257
 B     3.569503     4.509843     5.297709
 B     5.737412     5.398113     3.590373
 B     4.388485     5.951647     4.648481
 C     4.433819     3.173607     4.655673
 C     2.767720     1.651167     4.015384
 H     2.081744     2.454912     3.731443
 N     3.944287     1.874526     4.476730
 C     2.270706     0.286502     3.845048
 C     0.983016     0.070963     3.337080
 H     0.362934     0.919628     3.069696
 C     0.503043    -1.228225     3.178311
 H    -0.492739    -1.394041     2.786076
 C     1.306812    -2.315165     3.526669
 H     0.933111    -3.324742     3.404315
 C     2.594666    -2.103522     4.034521
 H     3.214218    -2.950400     4.303708
 C     3.075893    -0.810420     4.193526
 H     4.065632    -0.610832     4.583947
 H     2.420869     4.342771     5.517921
 H     6.067398     2.851246     2.768319
 H     3.460061     4.354207     2.699541
 H     6.086832     5.987994     2.626024
 H     3.782718     6.944299     4.428681
 B     4.749477     3.615522     6.321640
 B     6.295586     4.538720     6.303050
 B     6.915511     4.544405     4.618521
 B     4.729279     5.387799     6.325802
 B     6.066420     5.969164     5.267034
 C     6.082194     3.190559     5.262951
 C     7.787883     1.675118     5.845807
 H     8.502980     2.473681     6.064967
 N     6.588555     1.902104     5.450047
 C     8.260539     0.302345     6.026746
 C     9.571744     0.057346     6.453425
 H    10.236971     0.891271     6.648595
 C    10.014908    -1.253524     6.625276
 H    11.028613    -1.443871     6.955150
 C     9.150350    -2.320323     6.372465
 H     9.495361    -3.338473     6.507014
 C     7.838469    -2.078445     5.945598
 H     7.171930    -2.910007     5.751061
 C     7.393871    -0.774618     5.772755
 H     6.387099    -0.548569     5.444097
 H     8.067500     4.404706     4.396529
 H     4.451550     2.836035     7.149267
 H     7.029893     4.392702     7.216983
 H     4.367463     5.970507     7.290016
 H     6.651016     6.974597     5.485680
