   55
FINAL HEAT OF FORMATION = -1016.110441
 B     0.350441     0.698651    12.584103
 H    -0.805848     0.897708    12.491060
 B     1.184632     0.208654    14.061016
 H     0.547136    -0.034982    15.024234
 B     2.685673     1.219349    14.228034
 H     3.030734     1.578985    15.298351
 B     2.873093     2.322046    12.837328
 H     3.170379     3.454731    12.937480
 B     2.939643     1.390515    11.338038
 H     3.421501     1.877592    10.376233
 B     1.402184     0.431521    11.178232
 H     0.911122     0.296861    10.112987
 B     1.333051    -0.740629    12.548891
 H     0.814513    -1.797196    12.424489
 B     3.767390     0.834239    12.836684
 H     4.945633     0.861426    12.945673
 B     2.902008    -0.336204    11.781992
 H     3.489278    -1.133648    11.134425
 B     2.765537    -0.454182    13.581293
 H     3.269754    -1.325252    14.203595
 N     0.473192     2.981062    13.937145
 N     0.727030     3.189035    11.550750
 C     1.260313     1.868210    13.539155
 C     1.423498     1.993140    11.898107
 C    -0.140861     3.590478    12.728012
 H    -0.170195     4.673447    12.829048
 H    -1.156360     3.205217    12.575971
 C    -0.009447     3.180201    10.267922
 H    -0.846548     2.464250    10.296563
 H     0.690010     2.859123     9.489913
 C    -0.527337     4.573469     9.974413
 C     0.303215     5.681482    10.177767
 H     1.301045     5.517997    10.565820
 C    -0.164396     6.964958     9.902942
 H     0.480519     7.820512    10.063813
 C    -1.463784     7.150477     9.421808
 H    -1.827137     8.148794     9.210306
 C    -2.294400     6.047506     9.221313
 H    -3.304811     6.186907     8.856129
 C    -1.827869     4.761996     9.502012
 H    -2.475767     3.903945     9.358311
 C     1.044863     3.928468    14.925385
 H     1.845011     4.541240    14.487264
 H     1.478108     3.325158    15.728065
 C    -0.057948     4.812293    15.470744
 C     0.145290     6.182748    15.646364
 H     1.098722     6.622335    15.374363
 C    -0.875227     6.984445    16.163056
 H    -0.712093     8.047277    16.294329
 C    -2.105309     6.418699    16.499164
 H    -2.899207     7.040666    16.894628
 C    -2.314140     5.048470    16.316612
 H    -3.270519     4.607461    16.571573
 C    -1.295991     4.248776    15.803386
 H    -1.447424     3.189370    15.638107
