   70
FINAL HEAT OF FORMATION = -1596.448077
 H     6.177610     5.964039    23.085952
 C     7.917739     4.608895    25.432633
 C     8.123685     5.991573    25.509439
 C     7.197729     6.794741    24.825002
 C     7.368867     8.145762    24.879187
 C     6.666496     4.388501    24.570513
 C     6.186648     5.845051    24.165805
 H     6.694047     8.822868    24.375972
 H     6.893295     3.795060    23.689147
 H     5.892524     3.863952    25.123884
 H     5.177281     6.033168    24.520935
 H    12.709016     7.855903    23.072866
 C    10.084495     5.734465    26.889338
 C     9.903135     4.382226    26.828232
 C     8.804313     3.805794    26.089786
 C     8.475032     8.714003    25.623155
 C     9.352180     7.905200    26.273896
 C     9.159635     6.525746    26.206118
 C    11.125119     6.652877    27.570540
 C    11.115748     6.436348    29.104221
 C    10.277356     5.489136    29.685597
 C    10.196166     5.320220    31.056958
 C    10.951794     6.123374    31.899133
 C    11.785898     7.070523    31.339041
 C    11.893454     7.222963    29.955833
 C    12.843328     8.255307    29.493774
 C    13.595511     8.203342    28.414353
 C    13.651881     7.101457    27.432438
 C    14.903269     6.855041    26.865525
 C    15.095471     5.836907    25.952841
 C    14.007972     5.056661    25.586965
 C    12.759270     5.317565    26.124015
 C    12.548662     6.337268    27.048103
 C    10.606303     8.189019    27.134904
 C    10.065554     8.938573    28.374468
 C     8.970860     8.292717    28.969297
 C     8.345197     8.761906    30.100467
 C    12.624826     8.465780    23.959586
 C    11.761250     8.099714    24.965248
 C    11.613718     8.831362    26.153603
 H    10.578619     3.707491    27.331964
 H     8.711766     2.729849    26.077200
 H     9.644201     4.886450    29.063313
 H     9.527167     4.577399    31.464170
 H    10.886102     6.015738    32.971212
 H    12.378858     7.711890    31.972001
 H    12.964566     9.088266    30.169307
 H    14.307992     8.995413    28.241558
 H    15.731009     7.480196    27.161528
 H    16.071980     5.657216    25.529291
 H    14.123542     4.259565    24.868324
 H    11.929272     4.728533    25.784149
 H     8.611937     7.380263    28.530001
 H     7.516446     8.215097    30.524121
 H    11.183562     7.202610    24.839252
 H    14.073809     9.932725    23.329700
 C     8.795494     9.941495    30.689540
 C     9.850057    10.601671    30.108887
 C    10.498325    10.126242    28.953129
 C    11.601891    10.993825    28.497044
 C    12.354575    10.941716    27.417232
 C    12.359635     9.997349    26.282910
 C    13.238770    10.366965    25.247251
 C    13.386545     9.623635    24.102386
 H     8.582221     9.789325    25.646100
 H     8.324279    10.330806    31.579094
 H    10.207960    11.520553    30.543558
 H    11.792526    11.811101    29.175455
 H    13.093209    11.721036    27.309518
 H    13.811814    11.270891    25.373417
