   66
FINAL HEAT OF FORMATION = -1520.031240
 C     8.112365    12.078774    17.317577
 C     7.942626    11.494798    18.537431
 C     7.427270    11.851275    21.008945
 H     8.345836    11.467595    16.457696
 H     8.038184    10.426222    18.658811
 H     7.502967    10.796640    21.225516
 C     7.698541    14.279819    18.195004
 C     7.991164    13.490464    17.130709
 C     7.634593    12.305171    19.669343
 C     7.138169    12.747065    21.993071
 C     7.032144    14.152791    21.731096
 C     7.227168    14.587119    20.466641
 C     7.525192    13.670372    19.448344
 C     7.509267    15.806097    18.295674
 C     6.347128    16.265663    17.377951
 C     5.650195    15.353050    16.590328
 C     4.564741    15.724448    15.816028
 C     4.125509    17.040408    15.825003
 C     4.799214    17.957001    16.607281
 C     5.912430    17.592342    17.366263
 C     6.545222    18.679984    18.139241
 C     7.830171    18.823044    18.386313
 C     8.917496    17.926876    17.944166
 C     8.800940    16.538824    17.849914
 C     7.175148    16.023460    19.906836
 C     5.703003    16.457792    20.098534
 C     4.785960    15.505957    19.626979
 C     3.423869    15.690763    19.664780
 C     2.909912    16.866509    20.207724
 C     3.789639    17.800373    20.696386
 C     5.185584    17.620273    20.658337
 C     5.940416    18.745839    21.242755
 C     7.226163    18.888917    21.490247
 C     8.362982    17.973863    21.269933
 C     8.346192    16.751915    20.607305
 H     8.134902    13.903316    16.144768
 H     6.982056    12.400343    23.004832
 H     6.801348    14.834743    22.536214
 H     5.930210    14.317677    16.599058
 H     4.051833    14.980301    15.225842
 H     3.270057    17.341965    15.239742
 H     4.472394    18.984436    16.640269
 H     5.867452    19.457542    18.456773
 H     8.162804    19.713084    18.898150
 H     5.163649    14.594162    19.202532
 H     2.765718    14.929952    19.273185
 H     1.845120    17.038395    20.247909
 H     3.412633    18.712736    21.128594
 H     5.303377    19.571374    21.520428
 H     7.526258    19.818771    21.948226
 H     9.558850    15.083589    20.047874
 C    10.126811    18.550083    17.631949
 C    11.218364    17.829992    17.189322
 C    11.102983    16.452268    17.073716
 C     9.914662    15.827752    17.410639
 C     9.575322    18.444384    21.809695
 C    10.749586    17.739279    21.716008
 C    10.732605    16.504510    21.070772
 C     9.551812    16.036556    20.543839
 H    10.192765    19.621249    17.740464
 H    12.143883    18.329792    16.946665
 H    11.941874    15.858605    16.743601
 H     9.877477    14.757065    17.358391
 H     9.564777    19.397537    22.312419
 H    11.662926    18.131458    22.136659
 H    11.633835    15.917400    20.978965
