  212
FINAL HEAT OF FORMATION = -3309.072162
 C     0.812476    -0.001769     0.008826
 C    -0.812405     0.002171    -0.009593
 C     1.439239     0.327571    -1.383374
 C    -1.439668    -0.326818     1.382442
 C    -1.413636     1.381587    -0.425541
 C     1.414926    -1.380711     0.424709
 C     1.396803     1.048800     1.003702
 C    -1.397673    -1.048551    -1.003850
 C     1.010395     1.079667     2.339966
 C    -1.008857    -1.084061    -2.339318
 C    -1.035938    -1.438822     2.131031
 C     1.037624     1.442111    -2.129659
 C     1.023616    -2.567691    -0.185200
 C    -1.026965     2.566752     0.191164
 C     2.424240     1.891824     0.618942
 C    -2.427788    -1.888203    -0.618556
 C    -2.521942     0.389221     1.842470
 C     2.518268    -0.391334    -1.846392
 C     2.481641    -1.440180     1.305177
 C    -2.474511     1.443379    -1.312700
 C     1.568666     1.963443     3.243804
 C    -1.568010    -1.969057    -3.241612
 C    -1.658220    -1.785148     3.306774
 C     1.659171     1.788030    -3.305872
 C     1.633592    -3.774717     0.102121
 C    -1.635739     3.774384    -0.096001
 C     3.034443     2.765759     1.511956
 C    -3.038485    -2.763231    -1.510011
 C    -3.199506     0.040464     3.013357
 C     3.194799    -0.043364    -3.018204
 C     3.135692    -2.632656     1.591556
 C    -3.127667     2.636493    -1.598922
 C     2.583294     2.814450     2.818058
 C    -2.585276    -2.816498    -2.815209
 C    -2.757944    -1.038241     3.740900
 C     2.755217     1.037564    -3.743472
 C     2.697528    -3.800172     0.995261
 C    -2.693991     3.802138    -0.995934
 H     0.269712     0.396177     2.692000
 H    -0.265643    -0.403441    -2.691879
 H    -0.224530    -2.035969     1.781182
 H     0.229460     2.042033    -1.776777
 H     0.233944    -2.560017    -0.903551
 H    -0.242583     2.556621     0.915341
 H     2.789964     1.862534    -0.386322
 H    -2.794934    -1.855662     0.386080
 H    -2.886447     1.227459     1.286406
 H     2.881058    -1.231583    -1.292285
 H     2.842131    -0.544082     1.766333
 H    -2.831331     0.548700    -1.779441
 C     1.087704     1.917659     4.704206
 C    -1.084961    -1.928992    -4.701461
 C    -1.203146    -2.996900     4.135267
 C     1.208025     3.002544    -4.132429
 C     1.099099    -5.042273    -0.583364
 C    -1.107347     5.040188     0.597483
 C     4.243247     3.578665     1.019832
 C    -4.249691    -3.572264    -1.017474
 C    -4.430319     0.870698     3.405776
 C     4.423367    -0.875881    -3.412949
 C     4.346502    -2.587432     2.536392
 C    -4.332920     2.593692    -2.550942
 H     3.034872     3.492651     3.514059
 H    -3.037240    -3.495574    -3.510083
 H    -3.260591    -1.324513     4.644072
 H     3.256846     1.323484    -4.647357
 H     3.186129    -4.728111     1.214592
 H    -3.181887     4.730496    -1.215059
 C     5.027550    -0.409805    -4.757580
 C    -5.035751     0.404123     4.749667
 C    -4.919270     4.001266    -2.806878
 C     4.931758    -3.994833     2.795769
 C     4.741894     4.578370     2.089117
 C    -4.749048    -4.573574    -2.084934
 C     5.498798    -0.728702    -2.301073
 C    -5.503985     0.721757     2.292459
 C    -5.435054     1.700222    -1.917094
 C     5.446623    -1.698978     1.892125
 C     5.388691     2.579397     0.692486
 C    -5.393457    -2.569788    -0.694147
 C     4.023687    -2.370365    -3.538939
 C    -4.032520     2.365683     3.531856
 C    -3.902844     1.980513    -3.909766
 C     3.925165    -1.966986     3.894657
 C     3.887361     4.369597    -0.266694
 C    -3.897123    -4.360719     0.271497
 C     1.016231     2.587220    -5.615992
 C    -1.030927    -2.583961     5.621865
 C    -1.933795     6.293490     0.228427
 C     1.927220    -6.295120    -0.216526
 C     1.682724     3.071193     5.545294
 C    -1.679856    -3.084880    -5.539415
 C    -0.128474     3.582080    -3.612843
 C     0.144899    -3.561060     3.628328
 C     0.367177     5.263093     0.167921
 C    -0.372389    -5.262320    -0.141932
 C    -0.459955     2.014219     4.762303
 C     0.462584    -2.027472    -4.756759
 C     2.300921     4.102756    -4.047902
 C    -2.283863    -4.107881     4.035996
 C    -1.149076     4.847243     2.136521
 C     1.129612    -4.854077    -2.123283
 C     1.526700     0.563463     5.324701
 C    -1.521677    -0.576546    -5.327233
 H     0.670886     3.437306    -6.191160
 H    -0.678554    -3.431010     6.197230
 H    -1.528584     7.155422     0.743326
 H     1.517644    -7.158313    -0.725829
 H     1.285327     3.024526     6.551360
 H    -1.280688    -3.042189    -6.544955
 H     1.945034     2.239257    -6.046431
 H    -1.968426    -2.251148     6.045282
 H    -2.968262     6.173143     0.523421
 H     2.959611    -6.176446    -0.519381
 H     2.760385     2.994605     5.602114
 H    -2.757326    -3.007351    -5.598396
 H     0.281630     1.795477    -5.693790
 H    -0.308567    -1.781954     5.708959
 H    -1.893089     6.481985    -0.836450
 H     1.894111    -6.480354     0.849181
 H     1.421744     4.030468     5.116480
 H    -1.420625    -4.042909    -5.106773
 H     2.013218     4.958550    -4.646461
 H    -1.994421    -4.962309     4.635688
 H    -0.798507     5.745516     2.629259
 H     0.776321    -5.754168    -2.610738
 H     1.155092     0.481327     6.338813
 H    -1.147827    -0.497747    -6.340787
 H     2.429200     4.424756    -3.021483
 H    -2.397488    -4.428425     3.007364
 H    -0.510984     4.024490     2.430388
 H     0.488742    -4.032764    -2.415267
 H     1.134255    -0.260314     4.742067
 H    -1.129870     0.248657    -4.746224
 H     3.247832     3.726092    -4.413155
 H    -3.238459    -3.741287     4.391499
 H    -2.158953     4.640199     2.467925
 H     2.136981    -4.647220    -2.462444
 H     2.606714     0.488997     5.343903
 H    -2.601606    -0.501439    -5.348946
 H    -0.442645     4.396815    -4.252243
 H     0.462368    -4.372074     4.270823
 H     0.773547     6.130753     0.672544
 H    -0.783449    -6.131230    -0.640580
 H    -0.788870     1.964755     5.792602
 H     0.793184    -1.983455    -5.786759
 H    -0.900845     2.823859    -3.612407
 H     0.908380    -2.793880     3.635231
 H     0.432476     5.422001    -0.901085
 H    -0.429786    -5.417555     0.928093
 H    -0.797106     2.950467     4.337459
 H     0.797985    -2.961933    -4.326633
 H    -0.024437     3.959938    -2.604989
 H     0.055159    -3.940315     2.619628
 H     0.965678     4.399177     0.427313
 H    -0.971932    -4.398620    -0.399663
 H    -0.923045     1.202338     4.217050
 H     0.925622    -1.213397    -4.214785
 H     5.879889    -1.030206    -5.004353
 H    -5.889868     1.022806     4.994598
 H    -5.755723     3.923826    -3.489981
 H     5.772025    -3.915693     3.473979
 H     5.573809     5.145823     1.691347
 H    -5.582949    -5.137984    -1.686998
 H     4.299196    -0.494512    -5.553904
 H    -4.308962     0.490917     5.547193
 H    -4.175128     4.651881    -3.248087
 H     4.188848    -4.642039     3.244015
 H     3.954646     5.268976     2.363576
 H    -3.963058    -5.266798    -2.356364
 H     5.360204     0.618048    -4.695015
 H    -5.366040    -0.624500     4.687163
 H    -5.271166     4.446241    -1.885343
 H     5.277907    -4.444749     1.874458
 H     5.077517     4.059420     2.977237
 H    -5.082015    -4.056125    -2.974932
 H     6.376620    -1.310316    -2.554816
 H    -6.382781     1.302561     2.544690
 H    -6.295355     1.651013    -2.573379
 H     6.310350    -1.647493     2.543721
 H     6.264278     3.117064     0.349595
 H    -6.270585    -3.104762    -0.350989
 H     5.789005     0.309517    -2.193877
 H    -5.792969    -0.316825     2.185472
 H    -5.748446     2.109464    -0.964291
 H     5.754576    -2.113782     0.939963
 H     5.653816     2.009101     1.574542
 H    -5.656296    -2.001207    -1.577991
 H     5.114433    -1.078470    -1.351228
 H    -5.118779     1.071426     1.342911
 H    -5.065275     0.695513    -1.755351
 H     5.077431    -0.694614     1.726903
 H     5.078571     1.890037    -0.083102
 H    -5.082906    -1.879067     0.080043
 H     4.890691    -2.961446    -3.806846
 H    -4.899905     2.955697     3.800883
 H    -4.752396     1.935759    -4.579906
 H     4.778297    -1.921601     4.560189
 H     4.765696     4.889801    -0.628119
 H    -4.776999    -4.878249     0.633013
 H     3.629076    -2.742040    -2.602435
 H    -3.639427     2.737917     2.594944
 H    -3.519627     0.978679    -3.771812
 H     3.543982    -0.964706     3.754208
 H     3.539293     3.704589    -1.045730
 H    -3.548703    -3.694568     1.049438
 H     3.267598    -2.494110    -4.304218
 H    -3.275581     2.490116     4.296246
 H    -3.130580     2.584858    -4.369393
 H     3.153582    -2.567127     4.360893
 H     3.114025     5.098571    -0.062831
 H    -3.125046    -5.091813     0.070435
