   66
FINAL HEAT OF FORMATION = -2137.124482
Cl    14.123811     3.398938     8.591069
Cl    20.122055     5.502460     8.450455
 C    18.178764     3.578015     8.409690
 C    18.787500     2.174662     8.191852
 C    17.242178     1.614913     8.458884
 C    16.840470     3.106960     8.462706
 C    15.789558     3.948705     8.544316
 C    16.054347     5.372796     8.613049
 C    14.998338     6.323021     8.703983
 C    15.253746     7.654717     8.785597
 C    16.592955     8.122295     8.782098
 C    17.621274     7.239028     8.694326
 C    17.385734     5.837954     8.605473
 C    18.477945     4.890701     8.492960
 C    19.849872     1.776719     9.222126
 C    20.144617     2.608013    10.290787
 C    21.107228     2.261619    11.232744
 C    21.801164     1.070840    11.112822
 C    21.524918     0.232575    10.037593
 C    20.564355     0.585226     9.108722
 C    19.370413     2.066449     6.705460
 C    18.674671     3.072842     5.746453
 C    20.881494     2.444956     6.713705
 C    19.259512     0.666436     6.028456
 C    16.607069     0.789151     7.335073
 C    15.810414     1.394466     6.376502
 C    15.226082     0.658224     5.351595
 C    15.425867    -0.708585     5.275549
 C    16.212852    -1.331585     6.238739
 C    16.791085    -0.590031     7.251427
 C    16.922542     0.968206     9.887191
 C    16.890494     2.046723    11.006333
 C    15.503176     0.327088     9.858100
 C    17.907648    -0.138719    10.371744
 H    13.979692     5.970036     8.708850
 H    14.439635     8.361964     8.854280
 H    16.790268     9.182640     8.848589
 H    18.638154     7.597058     8.689865
 H    19.622606     3.540659    10.403980
 H    21.310273     2.930253    12.056024
 H    22.549909     0.796465    11.840787
 H    22.058771    -0.699209     9.926701
 H    20.364102    -0.084873     8.294752
 H    18.923098     4.093117     5.999653
 H    19.022726     2.879970     4.739933
 H    17.602228     2.959218     5.759086
 H    21.488202     1.643169     7.106221
 H    21.191501     2.637066     5.694782
 H    21.065750     3.331115     7.300931
 H    18.317969     0.556381     5.513353
 H    20.051550     0.586570     5.294461
 H    19.359192    -0.151875     6.721621
 H    15.636325     2.454325     6.415885
 H    14.613669     1.161221     4.618094
 H    14.974751    -1.285737     4.482314
 H    16.377336    -2.397733     6.196395
 H    17.402264    -1.094458     7.975136
 H    17.801169     2.624058    11.029704
 H    16.052479     2.716929    10.882571
 H    16.784290     1.545085    11.959484
 H    14.782740     0.978357     9.388142
 H    15.505437    -0.615447     9.332131
 H    15.188980     0.145611    10.877705
 H    17.370579    -0.790160    11.049727
 H    18.302384    -0.739504     9.569684
 H    18.738721     0.288351    10.911083
