   66
FINAL HEAT OF FORMATION = -2137.107530
Cl     9.394493     8.730996     3.390446
Cl     4.399922    10.698871     0.044649
 C     7.057091    10.606089     0.647956
 C     7.719664    11.899069     0.146143
 C     9.129658    11.267572     0.792642
 C     8.190104    10.188420     1.403572
 C     8.100345     9.174994     2.290255
 C     6.847931     8.440080     2.373974
 C     6.705887     7.307257     3.222608
 C     5.532860     6.623889     3.296850
 C     4.418369     7.037568     2.524809
 C     4.522422     8.120117     1.709322
 C     5.738006     8.850143     1.607664
 C     5.850673    10.021263     0.759435
 C     7.002630    13.072952     0.890809
 C     6.280951    12.832829     2.061227
 C     5.574527    13.837010     2.699780
 C     5.560561    15.124496     2.180038
 C     6.260531    15.379547     1.013370
 C     6.962817    14.363526     0.377092
 C     7.690834    12.205757    -1.352658
 C     6.796242    11.567517    -2.199965
 C     6.748230    11.873064    -3.552236
 C     7.603880    12.826552    -4.084491
 C     8.505364    13.468017    -3.247052
 C     8.541671    13.159955    -1.896201
 C     9.928763    12.207054     1.796780
 C    10.219952    13.592837     1.157678
 C    11.298652    11.652534     2.289285
 C     9.134343    12.471821     3.111629
 C    10.040798    10.485482    -0.282458
 C     9.228583     9.787387    -1.420320
 C    11.108054    11.351702    -1.006030
 C    10.774297     9.286289     0.396812
 H     7.550896     6.986817     3.810328
 H     5.446187     5.762346     3.943352
 H     3.489394     6.489171     2.587233
 H     3.676020     8.436712     1.120666
 H     6.276569    11.852619     2.501292
 H     5.032339    13.609732     3.605375
 H     5.007390    15.909898     2.673228
 H     6.257344    16.369219     0.581883
 H     7.467892    14.600219    -0.540139
 H     6.151288    10.799729    -1.815980
 H     6.045795    11.356985    -4.189817
 H     7.571671    13.064032    -5.137231
 H     9.181748    14.210218    -3.643795
 H     9.243221    13.668138    -1.261494
 H     9.305519    14.089213     0.876418
 H    10.862232    13.512842     0.294991
 H    10.719923    14.209761     1.893310
 H    11.990697    11.446964     1.491915
 H    11.742179    12.412219     2.919268
 H    11.169746    10.764076     2.888297
 H     9.820786    12.851197     3.856033
 H     8.690297    11.566059     3.496612
 H     8.364387    13.210073     2.971862
 H     8.301770     9.364588    -1.063930
 H     9.020859    10.455395    -2.237615
 H     9.834312     8.979205    -1.806695
 H    10.653672    12.159531    -1.556243
 H    11.618137    10.715354    -1.718322
 H    11.848468    11.755873    -0.336308
 H    11.486913     8.887902    -0.312707
 H    11.305126     9.542548     1.293587
 H    10.066718     8.504808     0.627811
