   66
FINAL HEAT OF FORMATION = -1125.638793
 N     5.899382     7.717904     3.858249
 C     5.695053     7.136759     2.564117
 C     5.087937     8.620273     4.431151
 C     5.216936     5.834664     2.456943
 C     5.018733     5.286956     1.193963
 H     4.646931     4.278629     1.113244
 C     6.004385     7.875051     1.417864
 C     5.792340     7.305195     0.174265
 H     6.028285     7.872990    -0.711184
 C     5.291407     6.013211     0.047751
 C     4.910551     4.985397     3.684792
 H     5.281294     5.458230     4.581872
 H     5.371388     4.006869     3.587930
 H     3.837525     4.842745     3.784302
 B     3.128429     7.948523     4.890387
 H     2.829760     6.960072     4.344249
 B     5.088530    10.605437     4.449772
 H     6.010606    10.998366     3.847689
 C     5.049463     5.415666    -1.334929
 H     5.909349     5.579138    -1.977302
 H     4.188100     5.888254    -1.801931
 H     4.859912     4.350867    -1.265341
 C     6.571767     9.284240     1.520270
 H     5.766857    10.009746     1.610454
 H     7.145480     9.519814     0.631379
 H     7.208631     9.382552     2.391217
 B     3.846895     9.318664     3.674676
 H     3.699449     9.176617     2.527512
 B     2.249752     9.520484     4.633846
 H     1.271100     9.605454     4.004136
 B     3.408323    10.964649     4.548043
 H     3.041682    11.926678     3.996164
 H     6.708886     7.423102     4.387415
 N     4.263488     6.773107     6.878577
 C     4.869111     6.660031     8.172666
 C     3.887040     7.926686     6.305554
 C     6.235829     6.422951     8.279799
 C     6.809314     6.321187     9.542761
 H     7.868430     6.138890     9.623500
 C     4.075166     6.761881     9.318899
 C     4.674793     6.661044    10.562514
 H     4.065168     6.741074    11.447970
 C     6.044111     6.448767    10.689000
 C     7.124405     6.263132     7.051926
 H     6.529528     6.176186     6.155066
 H     7.742839     5.375911     7.150004
 H     7.783093     7.121958     6.950938
 B     5.447714     9.289032     5.846006
 H     6.453052     9.054483     6.392611
 B     2.166581     8.917406     6.286140
 H     1.365592     8.314699     6.888054
 C     6.682743     6.360092    12.071636
 H     6.110451     5.698612    12.714817
 H     6.705620     7.342812    12.537601
 H     7.699146     5.990390    12.002219
 C     2.571095     6.975201     9.216499
 H     2.345345     8.035004     9.125743
 H     2.080260     6.596673    10.105636
 H     2.167408     6.472373     8.345858
 B     3.901445     9.350820     7.061486
 H     4.098071     9.408166     8.208645
 B     4.524259    10.835061     6.101955
 H     4.939099    11.725653     6.731451
 B     2.694444    10.552453     6.187644
 H     2.043918    11.350673     6.739152
 H     4.115128     5.924598     6.349206
