   54
FINAL HEAT OF FORMATION = -1290.753910
 C     9.085858     5.476566    10.811317
 C     7.727685     6.183159    11.444634
 C     7.509103     4.288089     9.199203
 C     6.427595     4.850609     9.703439
 C     9.091783     3.954993    10.939780
 C     9.834990     3.243764    11.853361
 H    10.475156     3.762308    12.551479
 C     9.747331     1.848589    11.872012
 H    10.330004     1.286019    12.586273
 C     8.916077     1.189049    10.984633
 H     8.848863     0.111330    11.005925
 C     8.154295     1.911710    10.060643
 H     7.493886     1.399954     9.376374
 C     8.249770     3.283646    10.041756
 C     9.318021     5.821940     9.342112
 C    10.256052     6.716677     8.881244
 H    10.896356     7.236724     9.578119
 C    10.365835     6.948974     7.507012
 H    11.101734     7.649167     7.140483
 C     9.534742     6.290436     6.618727
 H     9.620888     6.476536     5.558352
 C     8.575609     5.386467     7.086907
 H     7.916077     4.881840     6.396525
 C     8.476688     5.156234     8.439280
 C     6.742373     5.177339    12.035615
 C     6.562630     4.946472    13.380014
 H     7.143024     5.496179    14.105988
 C     5.628832     3.991818    13.793537
 H     5.483268     3.808211    14.847700
 C     4.896671     3.280618    12.859868
 H     4.179413     2.541337    13.184602
 C     5.084186     3.509124    11.492857
 H     4.524148     2.945143    10.761735
 C     5.998970     4.454654    11.091629
 C     6.968585     7.044412    10.437804
 C     6.983501     8.419885    10.407565
 H     7.564061     8.970978    11.132360
 C     6.246998     9.092787     9.428248
 H     6.254508    10.172317     9.401436
 C     5.514989     8.382627     8.493646
 H     4.950976     8.907324     7.736657
 C     5.505317     6.984298     8.518868
 H     4.946091     6.427389     7.781729
 C     6.225897     6.327385     9.488979
 C     9.833198     6.287402    11.864651
 C    11.092965     6.547527    12.347510
 H    11.985037     6.092135    11.941810
 C    11.166890     7.452800    13.416228
 H    12.131214     7.696623    13.838087
 C    10.026548     8.046094    13.948014
 H    10.129777     8.737951    14.771430
 C     8.749174     7.766954    13.440514
 H     7.869657     8.233279    13.860944
 C     8.697906     6.878057    12.394083
