   74
FINAL HEAT OF FORMATION = -1228.574628
 C     0.838790     5.535492     9.042925
 C     1.615405     5.606389     7.677731
 C     0.868852     4.004743     9.681035
 C     1.840625     7.055800     7.190834
 C    -0.472770     3.760476    10.432827
 C    -0.561651     6.218174     8.717411
 C     2.047117     3.816511    10.703402
 C    -1.488938     6.475181     9.935307
 C     1.722078     7.928109     9.523875
 C     3.554796     2.611175     9.054578
 C     1.498456     6.508345    10.085490
 C    -0.331907     7.673646     8.178109
 C    -1.305348     5.458116     7.594244
 C     1.917010     2.484935    11.487868
 C     0.913483     1.422591     9.482570
 C     0.639818     6.663944    11.364285
 C     0.480770     7.701957     6.883747
 C     1.046235     2.770853     8.708299
 C     0.361935     8.568996     9.213317
 C     2.041027     1.293995    10.524513
 C    -0.558694     2.432999    11.198661
 C     3.430635     3.814579    10.011741
 C     3.424425     1.303237     9.855183
 C     2.426116     2.655109     8.006369
 C    -0.498512     5.502072     6.276340
 C    -0.438255     1.279671    10.194864
 C    -0.737749     7.275848    11.026133
 C     0.576639     2.390707    12.234748
 C     2.584049     7.876806     8.254393
 C    -0.491209     8.697083    10.485341
 C     0.893017     4.891771     6.506844
 C    -0.298094     6.949062     5.794962
 H     2.467877     6.137672    10.357876
 H     4.513853     2.643187     8.554998
 H    -1.515653     2.389224    11.701257
 H    -1.248730     1.331430     9.479820
 H     3.538782     7.417113     8.474153
 H     0.792500     3.839112     6.658988
 H     0.516196     9.546105     8.778639
 H     2.228315     8.507377    10.282773
 H     3.593710     4.732740     9.470728
 H     1.155761     7.337593    12.035810
 H     4.199291     1.239504    10.607815
 H     3.527228     0.452719     9.194243
 H    -1.312242     8.072775     7.971991
 H    -2.310972     7.082208     9.583011
 H    -1.431174     9.179824    10.253328
 H     0.538906     1.472060    12.805442
 H     0.528320     5.731759    11.887334
 H     2.029896     4.596949    11.438431
 H     0.471631     3.217921    12.924526
 H     2.771043     8.878510     7.890103
 H     2.589146     5.178421     7.816465
 H     4.198496     3.747312    10.771452
 H     0.254023     2.778248     7.979653
 H     2.728940     2.449165    12.200408
 H     0.248582     6.951173     4.861216
 H    -1.250125     7.435516     5.628169
 H    -1.471877     4.429424     7.875434
 H     2.433794     7.010964     6.288801
 H    -0.492223     0.321846    10.695385
 H    -1.278674     3.791911     9.722011
 H    -1.021839     4.932489     5.519914
 H     0.023117     9.298908    11.222791
 H    -0.629613     4.539793    11.146220
 H     2.433024     1.730862     7.444795
 H     2.613958     3.440966     7.304139
 H    -1.930352     5.583245    10.331405
 H    -1.342616     7.321081    11.922139
 H     0.630659     8.728863     6.583191
 H     1.015833     0.631961     8.753531
 H     1.491653     5.025755     5.616333
 H    -2.273728     5.916111     7.442538
 H     1.907632     0.374131    11.075598
