   28
FINAL HEAT OF FORMATION =  -436.741550
 B     0.412335     6.579337     5.242908
 H     0.760579     5.978936     6.181329
 B    -2.207340     7.791395     4.244858
 H    -3.377230     7.803200     4.174684
 B    -1.252723     6.116844     4.511084
 H    -1.758252     5.171090     4.973471
 B    -1.221304     7.995756     2.564523
 H    -1.575653     8.439199     1.541240
 B     0.449517     5.890966     3.559277
 H     0.705744     4.774111     3.321955
 B     0.583340     8.471680     4.975729
 H     1.102209     9.254917     5.670428
 B     1.615569     7.332583     4.190867
 H     2.766729     7.192263     4.021054
 B     0.593821     8.548002     3.067492
 H     1.089108     9.424946     2.476346
 B    -1.016393     7.738031     5.493011
 H    -1.395673     7.909267     6.584851
 B    -0.936883     9.003733     4.053039
 H    -1.207256    10.137670     4.112155
 C     0.664380     7.046336     2.469332
 C    -1.493126     6.463815     2.949323
 N     1.100076     6.786831     1.227003
 N    -2.092331     5.609248     2.106234
 H    -2.349573     4.679769     2.410183
 H    -2.339720     5.896838     1.169574
 H     1.332002     7.540253     0.593772
 H     1.251146     5.835483     0.921581
