   54
FINAL HEAT OF FORMATION =  -970.434960
 B     0.994283     0.116471     8.119956
 B     0.501562     1.598389     9.233808
 B    -1.306061     1.467760     9.662433
 B    -1.729201     0.032672     8.498129
 B     1.361331     0.100829     9.914937
 B    -0.095048     0.822272    10.833454
 B    -1.609668    -0.173253    10.324688
 C    -0.581240     1.159289     8.023525
 N    -0.768768     1.825194     6.866874
 C     0.220815     2.700357     6.257142
 H     1.182532     2.509288     6.742428
 H    -0.031595     3.745785     6.450822
 C     0.372195     2.477122     4.738692
 C     0.882978     3.498280     3.946338
 H     1.146134     4.442928     4.396630
 C     1.060253     3.304467     2.585208
 H     1.457609     4.102570     1.975542
 C     0.724957     2.087260     2.002709
 H     0.865875     1.938728     0.942787
 C     0.208677     1.068836     2.788373
 H    -0.056688     0.116610     2.350948
 C     0.032136     1.267127     4.151564
 H    -0.379129     0.479818     4.758547
 H     1.802595     0.311147     7.301695
 H    -2.530142    -0.356570    11.016767
 H     1.065865     2.612083     9.111079
 H    -2.723822    -0.054864     7.892395
 H     2.435261     0.223223    10.352568
 H    -2.022203     2.393024     9.690374
 H     0.033086     1.385155    11.847860
 H    -1.677013     1.767464     6.437175
 B     0.851155    -1.452291     9.171922
 B    -0.986140    -1.552662     9.256982
 B     0.030829    -0.967209    10.711713
 C    -0.280316    -0.901067     7.853471
 N    -0.499816    -1.461029     6.617716
 C     0.591133    -1.761796     5.698589
 H     1.205460    -0.868194     5.576510
 H     1.242052    -2.546630     6.093177
 C     0.053746    -2.188437     4.332096
 C     0.884538    -2.897412     3.472769
 H     1.883616    -3.153397     3.790350
 C     0.442315    -3.263733     2.209673
 H     1.097386    -3.809466     1.546650
 C    -0.843762    -2.933279     1.802151
 H    -1.192135    -3.220152     0.821398
 C    -1.677581    -2.231715     2.663119
 H    -2.677358    -1.966768     2.352021
 C    -1.229176    -1.859411     3.923055
 H    -1.880981    -1.297132     4.574540
 H     1.533296    -2.360690     8.893595
 H    -1.582769    -2.548748     9.130378
 H     0.185721    -1.645216    11.649011
 H    -1.292383    -2.083023     6.566767
