   55
FINAL HEAT OF FORMATION = -1008.045441
 B     0.247659     0.634784    12.893438
 H    -0.887328     0.908308    12.988244
 B     1.408994     0.441833    14.250632
 H     1.017846     0.322633    15.345872
 B     2.956168     1.513314    14.040843
 H     3.415707     1.947174    15.022759
 B     3.026195     2.465855    12.502471
 H     3.225806     3.618737    12.445627
 B     2.702431     1.374697    11.111378
 H     2.941631     1.726157    10.022346
 B     1.109305     0.373760    11.323522
 H     0.504182     0.162579    10.347405
 B     1.364282    -0.752421    12.805767
 H     0.902498    -1.823158    12.881818
 B     3.851564     0.887006    12.511411
 H     5.015438     0.885700    12.406910
 B     2.771954    -0.359551    11.703997
 H     3.241514    -1.208431    11.056333
 B     2.956840    -0.288528    13.592511
 H     3.564375    -1.080289    14.196308
 N     0.682564     3.178089    13.898248
 N     0.495763     3.117618    11.582357
 C     1.397179     2.057695    13.483473
 C     1.248176     2.000895    11.938245
 C     0.090954     3.891798    12.761412
 H     0.465130     4.923731    12.711299
 H    -1.004197     3.936496    12.841364
 C    -0.319774     3.130105    10.383653
 H    -1.267177     2.606745    10.537504
 H     0.227376     2.595945     9.603246
 C    -0.587413     4.565993     9.934708
 C     0.451800     5.487757     9.933906
 H     1.431901     5.174018    10.261475
 C     0.228384     6.791578     9.521074
 H     1.039728     7.505025     9.522839
 C    -1.040263     7.180897     9.103179
 H    -1.216049     8.197115     8.781610
 C    -2.078607     6.260827     9.101850
 H    -3.065981     6.558227     8.779587
 C    -1.850766     4.954700     9.519716
 H    -2.659578     4.239646     9.523201
 C     1.021530     3.888172    15.115666
 H     1.866654     4.564775    14.963562
 H     1.323928     3.147511    15.859805
 C    -0.184663     4.672673    15.630352
 C    -0.040571     5.970158    16.093958
 H     0.931999     6.438621    16.082076
 C    -1.143588     6.668871    16.571286
 H    -1.025092     7.680596    16.931260
 C    -2.394221     6.068612    16.580826
 H    -3.253073     6.610944    16.948596
 C    -2.539884     4.765968    16.114158
 H    -3.512144     4.294839    16.120735
 C    -1.437252     4.072094    15.642104
 H    -1.537932     3.060908    15.276477
