   66
scf done: -1540.058427
 C    -0.001307     4.241093     1.575038
 C    -0.001284     4.716821     0.277049
 C    -0.000892     4.133211    -2.191723
 H    -0.001553     4.945747     2.402054
 H    -0.001520     5.786215     0.083160
 H    -0.001114     5.177130    -2.493934
 C    -0.000614     1.932177     0.835882
 C    -0.000975     2.852150     1.868142
 C    -0.000935     3.805179    -0.809626
 C    -0.000558     3.130323    -3.143541
 C    -0.000251     1.755502    -2.788114
 C    -0.000247     1.413143    -1.456159
 C    -0.000593     2.423663    -0.482298
 C    -0.000175     0.397120     0.878521
 C    -1.270906    -0.126380     1.578055
 C    -2.243015     0.759909     2.068972
 C    -3.465272     0.329714     2.577429
 C    -3.774612    -1.028435     2.587808
 C    -2.829810    -1.927066     2.116639
 C    -1.570485    -1.510925     1.643646
 C    -0.671499    -2.573253     1.228019
 C     0.672855    -2.572873     1.227924
 C     1.571248    -1.510057     1.643554
 C     1.270780    -0.125683     1.578249
 C     0.000078     0.012637    -0.832383
 C    -1.350638    -0.615740    -1.227779
 C    -2.456521     0.239366    -1.052929
 C    -3.773074    -0.156868    -1.242704
 C    -4.042662    -1.458600    -1.660413
 C    -2.975726    -2.310177    -1.885059
 C    -1.627817    -1.927131    -1.683667
 C    -0.670684    -2.975343    -1.987025
 C     0.672235    -2.974950    -1.987249
 C     1.628877    -1.926321    -1.683789
 C     1.351112    -0.615149    -1.227613
 H    -0.001050     2.527068     2.904025
 H    -0.000528     3.397027    -4.196870
 H    -0.000003     0.991190    -3.559229
 H    -2.072403     1.824507     2.011137
 H    -4.183652     1.063602     2.931935
 H    -4.734966    -1.380553     2.953187
 H    -3.048233    -2.991625     2.117859
 H    -1.161999    -3.505178     0.957837
 H     1.163839    -3.504530     0.957647
 H    -2.283084     1.254892    -0.725370
 H    -4.577284     0.548272    -1.055994
 H    -5.062374    -1.799300    -1.814460
 H    -3.166150    -3.322723    -2.230673
 H    -1.136799    -3.913979    -2.280252
 H     1.138809    -3.913305    -2.280642
 H     2.282809     1.255724    -0.724684
 C     2.830858    -1.925480     2.116409
 C     3.775028    -1.026317     2.587851
 C     3.464698     0.331609     2.578002
 C     2.242178     0.761129     2.069581
 C     2.976963    -2.308775    -1.885177
 C     4.043537    -1.456851    -1.660200
 C     3.773391    -0.155334    -1.242162
 C     2.456673     0.240342    -1.052448
 H     3.049998    -2.989892     2.117332
 H     4.735659    -1.377859     2.953053
 H     4.182511     1.065881     2.932864
 H     2.070817     1.825630     2.012157
 H     3.167805    -3.321155    -2.231062
 H     5.063399    -1.797114    -1.814221
 H     4.577304     0.550050    -1.055120
