   66
scf done: -1140.941732
 N     1.342556    -0.288875     0.847067
 C     2.624660    -0.748875     0.370149
 C     0.829379     0.962100     0.503660
 C     2.699490    -1.582318    -0.757055
 C     3.963460    -1.998717    -1.196962
 H     4.021842    -2.636685    -2.076299
 C     3.792354    -0.408956     1.088457
 C     5.024516    -0.863656     0.622105
 H     5.923069    -0.600954     1.175893
 C     5.135377    -1.642903    -0.535092
 C     1.482534    -2.084878    -1.492616
 H     0.564842    -1.847711    -0.957158
 H     1.544462    -3.171201    -1.624644
 H     1.415313    -1.642608    -2.494386
 B     0.698612     1.353211    -1.163839
 H     1.165131     0.608558    -1.950974
 B     0.779822     2.301663     1.510921
 H     1.282732     2.170116     2.574966
 C     6.486713    -2.082034    -1.042559
 H     7.132406    -2.417883    -0.223455
 H     7.005790    -1.255825    -1.545366
 H     6.396476    -2.901343    -1.762596
 C     3.734974     0.413903     2.351852
 H     3.448204     1.449413     2.148041
 H     4.712001     0.425536     2.842692
 H     3.008874     0.018749     3.072864
 B     1.703122     2.289589    -0.004754
 H     2.878232     2.162379    -0.051596
 B     0.749492     3.129478    -1.230687
 H     1.291191     3.697994    -2.120431
 B     0.752138     3.721681     0.456630
 H     1.301227     4.720684     0.787678
 H     1.157464    -0.517614     1.816819
 N    -1.342486    -0.288979    -0.846947
 C    -2.624628    -0.748921    -0.370071
 C    -0.829334     0.962034    -0.503644
 C    -2.699574    -1.582192     0.757256
 C    -3.963592    -1.998488     1.197124
 H    -4.022065    -2.636309     2.076562
 C    -3.792254    -0.409099    -1.088537
 C    -5.024465    -0.863702    -0.622221
 H    -5.922963    -0.601079    -1.176134
 C    -5.135443    -1.642758     0.535093
 C    -1.482702    -2.084666     1.493011
 H    -0.564949    -1.847543     0.957640
 H    -1.544632    -3.170978     1.625135
 H    -1.415613    -1.642301     2.494748
 B    -0.698573     1.353299     1.163825
 H    -1.165074     0.608702     1.951026
 B    -0.779803     2.301511    -1.511020
 H    -1.282709     2.169857    -2.575054
 C    -6.486833    -2.081785     1.042507
 H    -7.132427    -2.417835     0.223407
 H    -7.005978    -1.255463     1.545058
 H    -6.396671    -2.900923     1.762747
 C    -3.734747     0.413534    -2.352074
 H    -3.448022     1.449086    -2.148415
 H    -4.711719     0.425059    -2.843028
 H    -3.008556     0.018270    -3.072933
 B    -1.703103     2.289550     0.004657
 H    -2.878209     2.162322     0.051512
 B    -0.749491     3.129570     1.230516
 H    -1.291203     3.698153     2.120209
 B    -0.752150     3.721623    -0.456854
 H    -1.301262     4.720584    -0.787990
 H    -1.157331    -0.517831    -1.816661
