   58
scf done: -1979.621132
 I    -1.828653     3.483769    -0.123901
 I    -1.551433    -3.613599     0.121005
 C     0.774378     0.890679     0.031963
 C     0.840968    -0.827352    -0.033042
 C    -0.664393    -0.729504     0.026133
 C    -1.786949    -1.501547     0.056298
 C    -3.063975    -0.846093     0.030284
 C    -4.287230    -1.562728     0.059753
 C    -5.503809    -0.918513     0.030031
 C    -5.558501     0.489130    -0.031285
 C    -4.395664     1.225913    -0.061847
 C    -3.120317     0.606550    -0.033281
 C    -1.898171     1.359561    -0.059895
 C    -0.718976     0.677357    -0.030195
 C     1.334299     1.477186     1.308353
 C     0.843808     1.412052     2.603923
 C     1.576256     2.013484     3.635361
 C     2.777365     2.673019     3.360739
 C     3.247475     2.782646     2.047919
 C     2.510737     2.198468     1.020348
 C     2.650480     2.285130    -0.439588
 C     3.573467     2.971389    -1.224763
 C     3.374939     3.023187    -2.607967
 C     2.257296     2.418376    -3.188743
 C     1.337487     1.714238    -2.401942
 C     1.553754     1.622085    -1.033881
 C     1.671226    -1.497100     1.034976
 C     1.458919    -1.605300     2.402418
 C     2.427217    -2.237902     3.191862
 C     3.589006    -2.756189     2.614198
 C     3.787036    -2.689150     1.231539
 C     2.816745    -2.075111     0.443683
 C     2.674782    -1.998967    -1.016763
 C     3.456555    -2.525362    -2.042214
 C     2.982986    -2.451272    -3.356416
 C     1.736222    -1.884415    -3.634207
 C     0.957431    -1.340542    -2.604758
 C     1.447663    -1.368949    -1.307831
 H    -4.247854    -2.645363     0.106496
 H    -6.421895    -1.497689     0.054169
 H    -6.518763     0.995359    -0.054743
 H    -4.440863     2.308314    -0.108786
 H    -0.101537     0.921657     2.814168
 H     1.203775     1.971007     4.654541
 H     3.337887     3.129135     4.171694
 H     4.156104     3.338619     1.834398
 H     4.419397     3.479650    -0.770474
 H     4.083231     3.559050    -3.233358
 H     2.096181     2.496428    -4.259800
 H     0.463708     1.265829    -2.858035
 H     0.552443    -1.224295     2.855939
 H     2.269155    -2.328553     4.262376
 H     4.334213    -3.236729     3.241654
 H     4.670720    -3.131262     0.779919
 H     4.404293    -3.010537    -1.826169
 H     3.578714    -2.863619    -4.165708
 H     1.364210    -1.869987    -4.654336
 H    -0.021639    -0.922764    -2.817438
