   62
scf done: -6534.163333
Br     1.747649     3.288132    -0.587272
Br     1.748082    -3.287455     0.588064
 C    -0.848946     0.826832    -0.253150
 C    -0.848685    -0.827154     0.252768
 C     0.665167    -0.682229     0.169992
 C     1.822052    -1.399481     0.274057
 C     3.072792    -0.713644     0.126255
 C     4.321265    -1.376973     0.237254
 C     5.510799    -0.694614     0.118940
 C     5.510657     0.695949    -0.118214
 C     4.320978     1.378027    -0.236737
 C     3.072645     0.714447    -0.125874
 C     1.821781     1.400036    -0.273760
 C     0.664990     0.682590    -0.169886
 C    -1.404447     0.965962    -1.655068
 C    -2.734025     0.598430    -1.915267
 C    -3.258857     0.662208    -3.202169
 C    -2.460645     1.094967    -4.263523
 C    -1.139480     1.463527    -4.019149
 C    -0.616722     1.397621    -2.725628
 C    -1.404526     1.831509     0.746569
 C    -0.769673     1.988214     1.989747
 C    -1.269115     2.862125     2.949208
 C    -2.413033     3.617469     2.683900
 C    -3.036865     3.494537     1.444197
 C    -2.535102     2.614266     0.483745
 C    -1.403352    -1.832226    -0.747002
 C    -0.768403    -1.988130    -1.990242
 C    -1.266857    -2.862664    -2.949642
 C    -2.409805    -3.619437    -2.684219
 C    -3.033697    -3.497277    -1.444473
 C    -2.532953    -2.616361    -0.484074
 C    -1.404478    -0.966253     1.654590
 C    -0.616579    -1.396374     2.725633
 C    -1.139567    -1.461823     4.019090
 C    -2.461131    -1.094311     4.262891
 C    -3.259550    -0.663178     3.201031
 C    -2.734498    -0.599928     1.914191
 H     4.322654    -2.444233     0.424035
 H     6.451317    -1.229659     0.210358
 H     6.451052     1.231212    -0.209392
 H     4.322197     2.445254    -0.423760
 H    -3.354005     0.226354    -1.106960
 H    -4.286622     0.358249    -3.378668
 H    -2.865280     1.137885    -5.270710
 H    -0.505768     1.799544    -4.835141
 H     0.416249     1.675340    -2.556320
 H     0.116165     1.406429     2.215870
 H    -0.762479     2.952869     3.905734
 H    -2.805592     4.300860     3.431626
 H    -3.916254     4.089735     1.213554
 H    -3.027331     2.548779    -0.478377
 H     0.116751    -1.405319    -2.216379
 H    -0.760233    -2.952748    -3.906242
 H    -2.801573    -4.303281    -3.431933
 H    -3.912281    -4.093620    -1.213749
 H    -3.025155    -2.551411     0.478096
 H     0.416760    -1.673110     2.556781
 H    -0.505748    -1.796724     4.835453
 H    -2.865891    -1.136732     5.270059
 H    -4.287653    -0.360119     3.377055
 H    -3.354691    -0.229211     1.105425
