   66
scf done: -1540.246786
 C     0.127381     4.023883     1.954075
 C     0.088076     4.631946     0.723531
 C    -0.005928     4.312444    -1.793641
 H     0.151056     4.571059     2.742817
 H     0.092855     5.590619     0.663738
 H     0.007156     5.255802    -1.975151
 C     0.082009     1.821564     0.975936
 C     0.132574     2.623331     2.097247
 C     0.039683     3.850343    -0.456611
 C    -0.068172     3.419054    -2.828260
 C    -0.081695     2.025511    -2.626281
 C    -0.021391     1.541003    -1.341222
 C     0.035655     2.451504    -0.278719
 C     0.018214     0.295244     0.852984
 C    -1.305315    -0.193283     1.485846
 C    -2.272233     0.738410     1.869118
 C    -3.496558     0.384733     2.391765
 C    -3.818720    -0.942551     2.559067
 C    -2.900927    -1.894520     2.171345
 C    -1.644845    -1.551370     1.636701
 C    -0.791641    -2.673459     1.275282
 C     0.545659    -2.730362     1.309383
 C     1.479161    -1.697199     1.721734
 C     1.278850    -0.316386     1.532078
 C     0.004150     0.086955    -0.856199
 C    -1.310731    -0.553903    -1.330600
 C    -2.424428     0.291296    -1.322888
 C    -3.704040    -0.119320    -1.637635
 C    -3.910963    -1.428095    -2.012014
 C    -2.849673    -2.291795    -2.040480
 C    -1.554767    -1.885470    -1.704021
 C    -0.587391    -2.952216    -1.867248
 C     0.748998    -2.919346    -1.858099
 C     1.661950    -1.814103    -1.701744
 C     1.362927    -0.495903    -1.335553
 H     0.172196     2.229181     2.972207
 H    -0.105414     3.754808    -3.727212
 H    -0.132181     1.424669    -3.373869
 H    -2.075692     1.672181     1.761505
 H    -4.126341     1.066982     2.639312
 H    -4.663957    -1.199604     2.936967
 H    -3.124966    -2.823926     2.267332
 H    -1.243314    -3.468267     0.976807
 H     0.938093    -3.560324     1.026087
 H    -2.291312     1.211851    -1.085337
 H    -4.437898     0.499086    -1.596505
 H    -4.791182    -1.732726    -2.249558
 H    -2.997311    -3.205059    -2.299882
 H    -0.969083    -3.823811    -2.003812
 H     1.172448    -3.774186    -1.973786
 H     2.250040     1.308447    -1.100302
 C     2.662287    -2.146869     2.328276
 C     3.634720    -1.297034     2.764424
 C     3.468594     0.045855     2.564060
 C     2.317623     0.516087     1.957497
 C     2.976573    -2.140996    -2.068362
 C     3.979426    -1.238401    -2.108841
 C     3.709026     0.062053    -1.726907
 C     2.420596     0.399567    -1.357356
 H     2.790716    -3.092342     2.439893
 H     4.419567    -1.634398     3.203103
 H     4.150040     0.661986     2.844336
 H     2.228866     1.462725     1.821817
 H     3.170344    -3.053665    -2.301039
 H     4.859729    -1.493657    -2.396669
 H     4.407262     0.723336    -1.718813
