   58
scf done: -1979.781821
 I    -1.704744     3.552603    -0.000419
 I    -1.700676    -3.554510     0.000192
 C     0.802911     0.867377    -0.000014
 C     0.803910    -0.866412    -0.000139
 C    -0.697145    -0.705343    -0.000219
 C    -1.849170    -1.437059    -0.000082
 C    -3.100023    -0.729340    -0.000144
 C    -4.350748    -1.400876    -0.000060
 C    -5.543590    -0.709335    -0.000088
 C    -5.544397     0.703040    -0.000210
 C    -4.352345     1.395944    -0.000308
 C    -3.100857     0.725839    -0.000280
 C    -1.850811     1.434984    -0.000352
 C    -0.697948     0.704591    -0.000367
 C     1.505512     1.496663     1.177913
 C     1.142755     1.533729     2.517993
 C     1.999821     2.156891     3.435703
 C     3.199548     2.737628     3.008624
 C     3.543704     2.747183     1.650985
 C     2.682422     2.141050     0.736562
 C     2.682988     2.141230    -0.734814
 C     3.545020     2.747543    -1.648406
 C     3.201950     2.738311    -3.006322
 C     2.002544     2.157713    -3.434485
 C     1.144726     1.534358    -2.517606
 C     1.506404     1.496965    -1.177240
 C     1.507724    -1.495232     1.177305
 C     1.145706    -1.532973     2.517571
 C     2.003921    -2.155399     3.434712
 C     3.204061    -2.734740     3.006908
 C     3.547525    -2.743648     1.649090
 C     2.685119    -2.138260     0.735238
 C     2.685004    -2.138082    -0.736140
 C     3.547225    -2.743293    -1.650291
 C     3.203501    -2.734086    -3.008038
 C     2.003294    -2.154611    -3.435497
 C     1.145276    -1.532367    -2.518058
 C     1.507558    -1.494934    -1.177852
 H    -4.353065    -2.488779     0.000024
 H    -6.486853    -1.254952    -0.000020
 H    -6.488282     1.247579    -0.000226
 H    -4.355905     2.483845    -0.000414
 H     0.199374     1.109484     2.852447
 H     1.727222     2.194648     4.489860
 H     3.857479     3.212206     3.736512
 H     4.453748     3.244829     1.316774
 H     4.454805     3.245092    -1.313345
 H     3.860480     3.213032    -3.733575
 H     1.730790     2.195704    -4.488853
 H     0.201600     1.110240    -2.852919
 H     0.202048    -1.109831     2.852615
 H     1.731886    -2.193663     4.488997
 H     3.862888    -3.208739     3.734364
 H     4.457943    -3.240223     1.314305
 H     4.457690    -3.239970    -1.315785
 H     3.862172    -3.207962    -3.735716
 H     1.731079    -2.192638    -4.489745
 H     0.201559    -1.109109    -2.852811
