   62
scf done: -6534.903866
Br     1.755955     3.299152    -0.535591
Br     1.755799    -3.299014     0.535980
 C    -0.850243     0.830874    -0.236267
 C    -0.850210    -0.830895     0.236062
 C     0.665288    -0.685669     0.160039
 C     1.823009    -1.405273     0.253925
 C     3.074086    -0.715701     0.116264
 C     4.323633    -1.382514     0.218190
 C     5.515329    -0.697874     0.109380
 C     5.515353     0.697902    -0.108622
 C     4.323676     1.382552    -0.217616
 C     3.074107     0.715770    -0.115850
 C     1.823054     1.405361    -0.253612
 C     0.665279     0.685836    -0.159808
 C    -1.410489     1.002401    -1.630781
 C    -2.740619     0.638609    -1.896163
 C    -3.273547     0.744372    -3.178368
 C    -2.481896     1.217986    -4.230088
 C    -1.158373     1.581788    -3.979827
 C    -0.628561     1.471244    -2.689995
 C    -1.404589     1.811008     0.786533
 C    -0.763946     1.941114     2.030722
 C    -1.256103     2.799075     3.010593
 C    -2.400991     3.563528     2.765288
 C    -3.031519     3.465888     1.524298
 C    -2.535687     2.600810     0.544165
 C    -1.404186    -1.811163    -0.786782
 C    -0.763379    -1.941220    -2.030898
 C    -1.255201    -2.799417    -3.010727
 C    -2.399904    -3.564163    -2.765463
 C    -3.030601    -3.466549    -1.524562
 C    -2.535109    -2.601228    -0.544468
 C    -1.410811    -1.002343     1.630451
 C    -0.629063    -1.470849     2.689943
 C    -1.159175    -1.581225     3.979672
 C    -2.482815    -1.217577     4.229526
 C    -3.274303    -0.744336     3.177510
 C    -2.741081    -0.638774     1.895411
 H     4.325655    -2.455993     0.390531
 H     6.459024    -1.236095     0.193398
 H     6.459057     1.236116    -0.192457
 H     4.325768     2.456026    -0.390027
 H    -3.359261     0.239020    -1.096718
 H    -4.304269     0.443116    -3.361633
 H    -2.893862     1.295679    -5.235876
 H    -0.528686     1.949077    -4.790021
 H     0.407240     1.749377    -2.518994
 H     0.126446     1.355546     2.243722
 H    -0.743722     2.871217     3.969453
 H    -2.788333     4.237206     3.529400
 H    -3.912152     4.071069     1.308848
 H    -3.035409     2.558223    -0.418761
 H     0.126890    -1.355460    -2.243867
 H    -0.742708    -2.871508    -3.969534
 H    -2.786963    -4.238023    -3.529552
 H    -3.911088    -4.071948    -1.309137
 H    -3.034964    -2.558628     0.418396
 H     0.406846    -1.748810     2.519250
 H    -0.529647    -1.948310     4.790077
 H    -2.894997    -1.295063     5.235249
 H    -4.305119    -0.443220     3.360463
 H    -3.359607    -0.239510     1.095711
