   74
scf done: -1245.050530
 C    -0.620836    -0.030294    -0.122118
 C    -0.959697    -1.538877    -0.411934
 C     1.032237     0.187128     0.179859
 C    -2.388269    -1.736804    -0.967651
 C     1.198174     1.318425     1.228185
 C    -1.695691     0.383518     1.002612
 C     1.821005     0.594593    -1.122863
 C    -1.740584     1.890216     1.351240
 C    -2.440784     0.578792    -1.869819
 C     2.738494    -1.726808    -1.558155
 C    -1.014476     0.869048    -1.351729
 C    -3.154824     0.124970     0.442996
 C    -1.557059    -0.503041     2.253743
 C     3.265766     1.061488    -0.787245
 C     3.350315    -0.577044     1.066779
 C    -0.946871     2.376930    -1.026211
 C    -3.403875    -1.346358     0.118093
 C     1.893454    -1.031943     0.724013
 C    -3.456445     0.983341    -0.791061
 C     4.070460    -0.118662    -0.217374
 C     2.638005     1.741263     1.520073
 C     1.924700    -0.559750    -2.140082
 C     4.159383    -1.248850    -1.243704
 C     2.083876    -2.213595    -0.256330
 C    -1.830351    -1.983002     1.923724
 C     3.390657     0.546226     2.099099
 C    -1.949343     2.744636     0.082929
 C     3.277786     2.218779     0.213017
 C    -2.600964    -0.897643    -2.225837
 C    -3.357856     2.472230    -0.457346
 C    -0.859606    -2.448338     0.834604
 C    -3.254373    -2.173781     1.394636
 H    -0.345963     0.656426    -2.188281
 H     2.769845    -2.552362    -2.283705
 H     2.612932     2.564917     2.248829
 H     2.914766     0.223022     3.037534
 H    -1.868466    -1.182736    -2.996661
 H     0.142537    -2.500183     1.246758
 H    -4.474080     0.747672    -1.140177
 H    -2.596509     1.195019    -2.769022
 H     0.933160    -0.907588    -2.448584
 H    -1.208736     2.935466    -1.937970
 H     4.660012    -0.889989    -2.156164
 H     4.759926    -2.080384    -0.844661
 H    -3.836531     0.420383     1.256649
 H    -2.605924     2.040589     2.015253
 H    -4.117086     2.740284     0.292747
 H     4.311824     2.555606     0.382377
 H     0.063629     2.695417    -0.764501
 H     1.339940     1.446683    -1.605174
 H     2.717135     3.077765    -0.186361
 H    -3.602130    -1.081895    -2.644555
 H    -0.284149    -1.901448    -1.187861
 H     2.418398    -0.184085    -3.049340
 H     1.460754    -1.382237     1.666955
 H     3.726065     1.388590    -1.732950
 H    -3.438862    -3.239946     1.193404
 H    -3.998838    -1.845364     2.136076
 H    -0.556778    -0.402694     2.692610
 H    -2.500859    -2.804308    -1.212475
 H     4.434494     0.805695     2.333074
 H     0.736228     1.000934     2.167574
 H    -1.681494    -2.587850     2.829984
 H    -3.552296     3.079385    -1.354644
 H     0.672917     2.207805     0.896360
 H     2.744605    -2.948907     0.227783
 H     1.162976    -2.745350    -0.480283
 H    -0.880033     2.224224     1.925075
 H    -1.841897     3.808959     0.337127
 H    -4.425033    -1.454898    -0.280147
 H     3.865604    -1.461538     1.471659
 H    -1.118256    -3.473381     0.527609
 H    -2.271210    -0.154698     3.016159
 H     5.082924     0.226248     0.045050
