   23
scf done:  -740.010113
 C     7.881129     5.695405     9.888052
 C     8.070751     6.980226    10.374723
 C     7.048515     7.921280    10.234019
 C     5.855911     7.546491     9.605106
 C     5.716500     6.251779     9.136820
 N     6.720834     5.354420     9.283647
 C     6.530324     3.985679     8.770147
 C     7.564787     2.842106     8.852191
 C     5.421919     2.997247     9.218601
 C     6.246230     3.604797     7.293369
 C     6.292222     2.289530     8.132949
 I     6.027387     0.318620     7.397614
 H     8.631700     4.914198     9.962865
 H     9.012882     7.231129    10.857299
 H     7.177525     8.935656    10.609389
 H     5.036242     8.250315     9.476263
 H     4.820186     5.891825     8.639465
 H     7.772418     2.426769     9.843717
 H     8.462395     2.935307     8.232225
 H     4.393387     3.235539     8.929434
 H     5.496250     2.604087    10.236970
 H     7.061875     3.758016     6.580331
 H     5.268432     3.880480     6.885704
