   28
scf done:  -442.915031
 B     0.378206     6.648581     5.268751
 H     0.858132     6.077760     6.194452
 B    -1.990708     7.598612     3.930683
 H    -3.167355     7.647906     3.777677
 B    -1.207452     6.165526     4.632696
 H    -1.838687     5.217998     4.970614
 B    -0.944045     8.118558     2.572275
 H    -1.367583     8.469077     1.519799
 B     0.280801     5.884789     3.672593
 H     0.633454     4.805347     3.326024
 B     0.560551     8.413180     4.997307
 H     1.175725     9.114087     5.734161
 B     1.405197     7.249873     3.948928
 H     2.567845     7.054676     3.828041
 B     0.620497     8.682155     3.237339
 H     1.235812     9.488062     2.623508
 B    -1.030379     7.751984     5.419159
 H    -1.561850     7.973323     6.459157
 B    -0.896298     8.982514     4.117509
 H    -1.325992    10.086353     4.217605
 C     0.482543     7.158060     2.544040
 C    -1.167958     6.477930     2.981751
 N     1.017115     6.834351     1.295519
 N    -1.733147     5.670976     1.978763
 H    -1.875998     4.713852     2.280237
 H    -2.589144     6.059000     1.599320
 H     0.502458     7.224166     0.515417
 H     1.181360     5.843804     1.163976
