   55
scf done: -1021.835777
 B    -2.289555    -0.049179    -1.468583
 H    -1.518977    -0.125676    -2.360886
 B    -3.084830     1.429257    -0.963762
 H    -2.919805     2.411720    -1.606066
 B    -2.998072     1.536348     0.824095
 H    -2.817909     2.586808     1.341244
 B    -2.186463     0.112160     1.479203
 H    -1.352148     0.146202     2.312985
 B    -3.051382    -1.343043     1.021691
 H    -2.885101    -2.332610     1.653656
 B    -3.101338    -1.445552    -0.770198
 H    -2.978195    -2.499014    -1.298218
 B    -4.026826    -0.031588    -1.384870
 H    -4.662904    -0.098460    -2.386663
 B    -3.919333     0.152354     1.507848
 H    -4.487730     0.237939     2.548195
 B    -4.508077    -0.833959     0.137121
 H    -5.512170    -1.464444     0.214054
 B    -4.487884     0.962255     0.019895
 H    -5.475363     1.622771     0.022739
 N    -0.371384     1.199682    -0.190196
 N    -0.397511    -1.174832     0.076444
 C    -1.741622     0.828446    -0.075456
 C    -1.767030    -0.779454     0.053253
 C     0.407487    -0.026109    -0.417480
 H     1.360403     0.027747     0.116185
 H     0.618906    -0.152979    -1.492579
 C    -0.075238    -2.443676    -0.572121
 H    -0.212562    -2.380898    -1.667182
 H    -0.780225    -3.193956    -0.193979
 C     1.346128    -2.853807    -0.257877
 C     1.790095    -2.895073     1.071587
 H     1.104429    -2.614443     1.870501
 C     3.098156    -3.278986     1.368536
 H     3.433287    -3.308269     2.405418
 C     3.979798    -3.627889     0.338532
 H     5.001675    -3.927470     0.570921
 C     3.544697    -3.587464    -0.987615
 H     4.226382    -3.852904    -1.795601
 C     2.233511    -3.198259    -1.282027
 H     1.899464    -3.159050    -2.319493
 C     0.163911     2.123605     0.815827
 H     0.274463     1.641105     1.800793
 H    -0.567114     2.932161     0.927210
 C     1.493988     2.687987     0.371358
 C     2.592519     2.680647     1.237002
 H     2.490603     2.244925     2.231692
 C     3.819084     3.221870     0.837299
 H     4.667256     3.208318     1.521746
 C     3.956856     3.770150    -0.439407
 H     4.911981     4.189382    -0.755632
 C     2.863098     3.775431    -1.313271
 H     2.965735     4.201032    -2.311584
 C     1.640482     3.237490    -0.910287
 H     0.791154     3.231375    -1.592499
