   68
scf done: -1614.163193
 C     1.523854    -0.000504     1.119132
 C     2.385386    -0.000570     2.215511
 C     3.807731    -0.000828     2.064643
 C     4.390552    -0.001108     0.804168
 C     3.498995    -0.001142    -0.277945
 C     4.143790    -0.000889    -1.523718
 C     3.317869    -0.000348    -2.640575
 C     1.894392    -0.000120    -2.499781
 C     1.298014    -0.000319    -1.249226
 C     2.137277    -0.000789    -0.134877
 C     5.719983    -0.000993     0.176330
 C     5.574596    -0.000860    -1.184983
 C    -0.004206    -0.000081     0.955395
 C    -0.616188     1.258516     1.599566
 C     0.191682     2.202561     2.249227
 C    -0.310948     3.385379     2.777425
 C    -1.662325     3.684908     2.648196
 C    -2.482740     2.773270     2.007319
 C    -1.997261     1.552968     1.507821
 C    -2.992423     0.672148     0.923827
 C    -2.992777    -0.670982     0.923794
 C    -1.997997    -1.552321     1.507615
 C    -2.483927    -2.772593     2.006764
 C    -1.663890    -3.684624     2.647550
 C    -0.312451    -3.385503     2.777142
 C     0.190642    -2.202765     2.249228
 C    -0.616818    -1.258389     1.599518
 C    -0.167521     0.000012    -0.800621
 C    -0.729040     1.349792    -1.289528
 C     0.100232     2.452584    -1.015288
 C    -0.222314     3.759835    -1.345364
 C    -1.419082     4.023901    -2.001289
 C    -2.248537     2.960843    -2.301028
 C    -1.939443     1.623996    -1.967079
 C    -2.947738     0.671497    -2.391187
 C    -2.948159    -0.669761    -2.391214
 C    -1.940438    -1.622883    -1.967152
 C    -2.250348    -2.959524    -2.301088
 C    -1.421467    -4.023082    -2.001496
 C    -0.224455    -3.759756    -1.345743
 C     0.098888    -2.452700    -1.015639
 C    -0.729790    -1.349414    -1.289715
 H     1.986974    -0.000308     3.227289
 H     4.411751    -0.000684     2.969535
 H     3.729087     0.000012    -3.647794
 H     1.285042     0.000349    -3.399606
 H     6.667085    -0.001017     0.704011
 H     1.258559     2.034966     2.318560
 H     0.365925     4.081628     3.265506
 H    -2.069003     4.614625     3.036448
 H    -3.543916     2.984231     1.897235
 H    -3.877071     1.169581     0.530670
 H    -3.877711    -1.167920     0.530651
 H    -3.545155    -2.983185     1.896474
 H    -2.070883    -4.614349     3.035459
 H     0.364064    -4.082013     3.265346
 H     1.257544    -2.035460     2.318829
 H     1.042907     2.285299    -0.507867
 H     0.462124     4.562487    -1.086062
 H    -1.698940     5.037163    -2.275749
 H    -3.184375     3.146480    -2.823072
 H    -3.838152     1.139549    -2.808378
 H    -3.838909    -1.137242    -2.808323
 H    -3.186335    -3.144626    -2.823043
 H    -1.702017    -5.036176    -2.275886
 H     0.459551    -4.562823    -1.086598
 H     1.041700    -2.285976    -0.508276
 H     6.390567    -0.000780    -1.899168
