   66
scf done: -1538.061719
 C     0.002171     4.215095     1.581993
 C     0.002536     4.695158     0.289039
 C     0.002358     4.117682    -2.175694
 H     0.002498     4.917530     2.411568
 H     0.003148     5.765965     0.100110
 H     0.002964     5.161834    -2.478882
 C     0.000922     1.911553     0.838311
 C     0.001362     2.828692     1.871524
 C     0.002100     3.788827    -0.797629
 C     0.001847     3.116689    -3.124994
 C     0.001065     1.744897    -2.773673
 C     0.000801     1.400289    -1.443482
 C     0.001314     2.410636    -0.473793
 C     0.000055     0.378068     0.867845
 C    -1.261908    -0.141278     1.593062
 C    -2.216067     0.745311     2.113086
 C    -3.399016     0.318438     2.704149
 C    -3.690936    -1.038634     2.773433
 C    -2.772811    -1.937126     2.259465
 C    -1.553095    -1.522349     1.698129
 C    -0.672795    -2.588687     1.256104
 C     0.669753    -2.589377     1.256208
 C     1.551120    -1.523969     1.698336
 C     1.261393    -0.142588     1.593260
 C     0.000042     0.004246    -0.813041
 C    -1.348765    -0.615120    -1.239598
 C    -2.451354     0.245377    -1.090257
 C    -3.757239    -0.115744    -1.382880
 C    -4.020876    -1.391091    -1.869383
 C    -2.958518    -2.256013    -2.043255
 C    -1.622676    -1.906710    -1.745710
 C    -0.671795    -2.966737    -2.022064
 C     0.669252    -2.967333    -2.022088
 C     1.621074    -1.908187    -1.745597
 C     1.348285    -0.616402    -1.239381
 H     0.001090     2.503807     2.908780
 H     0.002059     3.384613    -4.178512
 H     0.000706     0.984070    -3.549248
 H    -2.058369     1.811997     2.025228
 H    -4.101349     1.055857     3.083845
 H    -4.619944    -1.390268     3.213685
 H    -2.978993    -3.004185     2.300581
 H    -1.170992    -3.517703     0.985320
 H     1.167031    -3.518914     0.985478
 H    -2.283093     1.248325    -0.716297
 H    -4.559412     0.599767    -1.226013
 H    -5.033078    -1.703849    -2.110270
 H    -3.143476    -3.254405    -2.432851
 H    -1.140657    -3.906816    -2.309094
 H     1.137273    -3.907825    -2.309134
 H     2.284282     1.246086    -0.715661
 C     2.770369    -1.940027     2.259737
 C     3.689411    -1.042493     2.773749
 C     3.398907     0.314883     2.704467
 C     2.216437     0.743003     2.113338
 C     2.956638    -2.258699    -2.042990
 C     4.019781    -1.394804    -1.868822
 C     3.757264    -0.119280    -1.382161
 C     2.451670     0.243029    -1.089725
 H     2.975437    -3.007302     2.300860
 H     4.618034    -1.395099     3.214034
 H     4.101992     1.051572     3.084188
 H     2.059858     1.809856     2.025492
 H     3.140713    -3.257213    -2.432696
 H     5.031727    -1.708481    -2.109593
 H     4.560079     0.595449    -1.225027
