   66
scf done: -2157.200732
Cl    -1.993070     3.055264    -0.790182
Cl    -1.938848    -3.046829     0.887755
 C    -0.716250    -0.680246     0.193815
 C     0.805736    -0.703348     0.398512
 C     0.783353     0.732006    -0.448315
 C    -0.732216     0.674743    -0.227294
 C    -1.908765     1.362776    -0.373603
 C    -3.149312     0.673423    -0.176551
 C    -4.401292     1.316592    -0.334440
 C    -5.583275     0.636237    -0.171747
 C    -5.569480    -0.729945     0.160065
 C    -4.374118    -1.385303     0.327302
 C    -3.135065    -0.717088     0.170268
 C    -1.881098    -1.379558     0.374665
 C     1.614621    -1.850539    -0.194381
 C     0.995945    -2.970105    -0.759594
 C     1.731265    -4.046076    -1.252080
 C     3.119751    -4.034163    -1.195444
 C     3.759309    -2.923635    -0.652354
 C     3.017416    -1.852343    -0.164353
 C     1.058202    -0.627208     2.005195
 C    -0.024568     0.187648     2.734425
 C     0.998926    -2.062028     2.560795
 C     2.402388    -0.051148     2.486289
 C     1.580822     1.880355     0.151210
 C     0.961093     2.947130     0.809368
 C     1.695995     3.997429     1.355968
 C     3.082352     4.011389     1.258275
 C     3.721859     2.952141     0.619887
 C     2.982181     1.904893     0.081705
 C     1.012613     0.659794    -2.051506
 C     0.104735    -0.371385    -2.744291
 C     0.649782     2.029246    -2.651100
 C     2.451116     0.376762    -2.521682
 H    -4.417395     2.368193    -0.595217
 H    -6.527908     1.156585    -0.301895
 H    -6.503375    -1.270218     0.286424
 H    -4.369972    -2.436974     0.588171
 H    -0.083889    -3.008146    -0.825518
 H     1.207449    -4.895850    -1.681908
 H     3.696780    -4.872861    -1.575060
 H     4.844750    -2.882897    -0.611503
 H     3.551347    -0.994627     0.225543
 H    -1.021971    -0.250289     2.640421
 H     0.223511     0.209626     3.802199
 H    -0.067335     1.224504     2.392309
 H     1.860980    -2.657470     2.246059
 H     1.007682    -2.013719     3.656266
 H     0.094696    -2.593130     2.261928
 H     2.485048     1.026062     2.347457
 H     2.467320    -0.245064     3.564124
 H     3.271579    -0.534671     2.037540
 H    -0.116968     2.964402     0.906546
 H     1.173901     4.806564     1.859946
 H     3.658314     4.830240     1.680614
 H     4.806378     2.930648     0.550016
 H     3.516086     1.076405    -0.365984
 H     0.357262    -1.400078    -2.481206
 H    -0.956478    -0.206728    -2.537775
 H     0.242008    -0.270802    -3.827486
 H    -0.418233     2.240586    -2.587019
 H     1.194013     2.849284    -2.172547
 H     0.917701     2.026687    -3.714549
 H     2.419363     0.220561    -3.606527
 H     3.114717     1.228232    -2.351728
 H     2.891115    -0.519133    -2.082451
