   66
scf done: -2157.185519
Cl     2.906433     2.530895     0.599935
Cl     0.709358    -3.223480    -0.673701
 C     0.442371    -0.532437    -0.332729
 C    -1.006925    -0.221935     0.022115
 C    -0.470026     1.401496     0.063331
 C     0.919737     0.762098    -0.038010
 C     2.264769     1.005528     0.058503
 C     3.189987    -0.042259    -0.255172
 C     4.591414     0.162763    -0.250041
 C     5.464932    -0.852202    -0.555889
 C     4.977905    -2.132740    -0.877072
 C     3.625691    -2.372344    -0.884365
 C     2.694812    -1.349652    -0.581179
 C     1.285061    -1.587105    -0.555322
 C    -1.304856    -0.974983     1.358254
 C    -0.262662    -1.430113     2.183470
 C    -0.503215    -2.164791     3.339287
 C    -1.803448    -2.482131     3.717155
 C    -2.851535    -2.056650     2.911195
 C    -2.603699    -1.328039     1.750089
 C    -2.111707    -0.580246    -0.966134
 C    -1.924280    -1.543629    -1.961501
 C    -2.950519    -1.896928    -2.832855
 C    -4.200832    -1.295205    -2.732384
 C    -4.409061    -0.337129    -1.745286
 C    -3.378880     0.010025    -0.875140
 C    -0.816794     2.235801     1.378933
 C    -2.321702     2.190593     1.694655
 C    -0.426858     3.730907     1.350096
 C    -0.084909     1.694733     2.624255
 C    -0.680863     2.196684    -1.341429
 C    -0.587655     1.311819    -2.607005
 C    -2.013015     2.953685    -1.477498
 C     0.466128     3.211765    -1.557977
 H     4.972328     1.147675    -0.005147
 H     6.534582    -0.662655    -0.550606
 H     5.670407    -2.933377    -1.120836
 H     3.250139    -3.359314    -1.130353
 H     0.767051    -1.196916     1.938125
 H     0.339238    -2.492175     3.942781
 H    -1.994044    -3.060762     4.616853
 H    -3.877892    -2.302829     3.170745
 H    -3.452808    -1.059156     1.134580
 H    -0.955025    -2.008570    -2.084326
 H    -2.763616    -2.644431    -3.599430
 H    -5.001632    -1.567491    -3.414382
 H    -5.376956     0.147921    -1.647805
 H    -3.568737     0.758465    -0.113628
 H    -2.673722     1.170702     1.864012
 H    -2.933892     2.655262     0.917525
 H    -2.502851     2.746639     2.622571
 H    -0.897127     4.306478     0.552712
 H    -0.759787     4.173359     2.296552
 H     0.654838     3.875066     1.296391
 H    -0.227028     2.404778     3.447673
 H     0.993138     1.600095     2.462487
 H    -0.469734     0.735027     2.962028
 H     0.231034     0.587198    -2.565114
 H    -1.510566     0.780950    -2.832896
 H    -0.383563     1.972841    -3.457704
 H    -2.875086     2.288702    -1.413077
 H    -2.039979     3.410119    -2.474730
 H    -2.141726     3.762839    -0.756852
 H     0.206069     3.835828    -2.421163
 H     0.662153     3.878084    -0.723196
 H     1.400156     2.699304    -1.805859
