   66
scf done: -1139.405844
 N     1.346603    -0.266740     0.813194
 C     2.624445    -0.732292     0.342218
 C     0.822219     0.980503     0.473348
 C     2.702412    -1.571275    -0.779413
 C     3.962111    -2.010742    -1.200289
 H     4.018511    -2.653452    -2.077389
 C     3.788950    -0.420462     1.075805
 C     5.015883    -0.900050     0.627629
 H     5.910918    -0.656295     1.197201
 C     5.130309    -1.679136    -0.525463
 C     1.494781    -2.063657    -1.525422
 H     0.570886    -1.811487    -1.003675
 H     1.545309    -3.152138    -1.644171
 H     1.448393    -1.633346    -2.533660
 B     0.679377     1.383826    -1.181855
 H     1.130951     0.634490    -1.981818
 B     0.805197     2.322435     1.489078
 H     1.331529     2.184736     2.546115
 C     6.474351    -2.144112    -1.011285
 H     7.107387    -2.477591    -0.181751
 H     7.009661    -1.333050    -1.521031
 H     6.379665    -2.972291    -1.720424
 C     3.738157     0.393559     2.338642
 H     3.455934     1.432489     2.141788
 H     4.716872     0.398982     2.826646
 H     3.015434    -0.002723     3.063118
 B     1.697298     2.312760    -0.038264
 H     2.875843     2.176358    -0.101561
 B     0.724317     3.160049    -1.242606
 H     1.249238     3.727581    -2.147919
 B     0.761119     3.746127     0.442533
 H     1.321326     4.745772     0.766437
 H     1.179060    -0.479235     1.789534
 N    -1.346603    -0.266740    -0.813228
 C    -2.624431    -0.732319    -0.342248
 C    -0.822242     0.980502    -0.473349
 C    -2.702368    -1.571367     0.779338
 C    -3.962052    -2.010866     1.200215
 H    -4.018429    -2.653636     2.077272
 C    -3.788951    -0.420439    -1.075781
 C    -5.015875    -0.900056    -0.627603
 H    -5.910925    -0.656262    -1.197135
 C    -5.130271    -1.679213     0.525440
 C    -1.494712    -2.063780     1.525288
 H    -0.570832    -1.811571     1.003531
 H    -1.545227    -3.152269     1.643977
 H    -1.448300    -1.633525     2.533549
 B    -0.679410     1.383778     1.181865
 H    -1.130969     0.634409     1.981805
 B    -0.805249     2.322463    -1.489041
 H    -1.331580     2.184785    -2.546081
 C    -6.474297    -2.144185     1.011310
 H    -7.107687    -2.476832     0.181716
 H    -7.009208    -1.333367     1.521865
 H    -6.379629    -2.972939     1.719782
 C    -3.738189     0.393682    -2.338555
 H    -3.455961     1.432597    -2.141626
 H    -4.716915     0.399143    -2.826536
 H    -3.015483    -0.002541    -3.063080
 B    -1.697350     2.312726     0.038301
 H    -2.875893     2.176297     0.101593
 B    -0.724386     3.159998     1.242668
 H    -1.249318     3.727493     2.147999
 B    -0.761200     3.746125    -0.442454
 H    -1.321426     4.745769    -0.766329
 H    -1.179074    -0.479193    -1.789580
