   62
scf done: -6531.714627
Br     1.758591     3.295859    -0.397911
Br     1.759464    -3.295237     0.398565
 C    -0.859820     0.823039    -0.208610
 C    -0.859621    -0.823273     0.208545
 C     0.652757    -0.688938     0.133069
 C     1.809843    -1.412165     0.195578
 C     3.054860    -0.716085     0.085119
 C     4.301340    -1.383585     0.157294
 C     5.488762    -0.698532     0.078564
 C     5.488565     0.700190    -0.077788
 C     4.300953     1.384916    -0.156540
 C     3.054656     0.717080    -0.084367
 C     1.809446     1.412813    -0.194962
 C     0.652576     0.689218    -0.132627
 C    -1.412544     1.058984    -1.601766
 C    -2.741377     0.721057    -1.892675
 C    -3.279158     0.936275    -3.155610
 C    -2.494894     1.490977    -4.165038
 C    -1.172588     1.822734    -3.894062
 C    -0.637875     1.607532    -2.624832
 C    -1.410257     1.802733     0.825933
 C    -0.785780     1.910889     2.077132
 C    -1.251251     2.794460     3.042273
 C    -2.352805     3.605161     2.779265
 C    -2.971734     3.524249     1.537493
 C    -2.503036     2.637059     0.570572
 C    -1.409216    -1.803167    -0.826289
 C    -0.784288    -1.910717    -2.077304
 C    -1.248869    -2.794468    -3.042709
 C    -2.349951    -3.605964    -2.780155
 C    -2.969296    -3.525667    -1.538551
 C    -2.501500    -2.638288    -0.571366
 C    -1.412750    -1.059474     1.601494
 C    -0.638104    -1.607395     2.624914
 C    -1.173148    -1.822787     3.893975
 C    -2.495761    -1.491833     4.164426
 C    -3.280002    -0.937723     3.154656
 C    -2.741893    -0.722321     1.891892
 H     4.303087    -2.460955     0.282472
 H     6.429070    -1.239088     0.139037
 H     6.428724     1.240996    -0.138257
 H     4.302407     2.462275    -0.281791
 H    -3.359705     0.265052    -1.124478
 H    -4.310895     0.658710    -3.354070
 H    -2.911480     1.656150    -5.154986
 H    -0.546144     2.252090    -4.671509
 H     0.397165     1.870886    -2.436533
 H     0.075529     1.289888     2.303685
 H    -0.747044     2.850713     4.003248
 H    -2.716944     4.299289     3.532023
 H    -3.821443     4.161947     1.307431
 H    -2.989499     2.612430    -0.398150
 H     0.076682    -1.289112    -2.303502
 H    -0.744360    -2.850190    -4.003554
 H    -2.713379    -4.300236    -3.533113
 H    -3.818622    -4.164000    -1.308832
 H    -2.988239    -2.614167     0.397225
 H     0.397197    -1.870027     2.437034
 H    -0.546712    -2.251635     4.671711
 H    -2.912587    -1.657138     5.154250
 H    -4.311984    -0.660795     3.352701
 H    -3.360220    -0.266780     1.123419
