   62
scf done: -1980.037910
 I     3.530121     1.549793    -0.235975
 I    -3.530102     1.549800     0.236093
 C     0.828917    -1.034833    -0.182429
 C    -0.828924    -1.034833     0.182393
 C    -0.695266     0.477914     0.102610
 C    -1.423990     1.632856     0.129306
 C    -0.721454     2.878474     0.050528
 C    -1.387587     4.127506     0.091367
 C    -0.701736     5.316353     0.045279
 C     0.701758     5.316349    -0.045318
 C     1.387605     4.127501    -0.091380
 C     0.721469     2.878471    -0.050525
 C     1.424004     1.632855    -0.129271
 C     0.695285     0.477911    -0.102560
 C     1.099669    -1.577657    -1.573413
 C     1.643521    -0.788269    -2.587953
 C     1.887171    -1.314390    -3.855864
 C     1.587004    -2.642582    -4.134714
 C     1.033362    -3.440637    -3.135485
 C     0.790239    -2.911410    -1.873966
 C     1.779587    -1.593616     0.874478
 C     1.847933    -0.981715     2.135258
 C     2.711717    -1.446976     3.118480
 C     3.542951    -2.535667     2.864965
 C     3.500461    -3.142989     1.615482
 C     2.632040    -2.675121     0.630864
 C    -1.779602    -1.593558    -0.874537
 C    -1.847928    -0.981625    -2.135309
 C    -2.711730    -1.446837    -3.118532
 C    -3.543014    -2.535496    -2.865035
 C    -3.500537    -3.142849    -1.615573
 C    -2.632087    -2.675041    -0.630947
 C    -1.099674    -1.577716     1.573352
 C    -0.790274    -2.911489     1.873844
 C    -1.033397    -3.440761     3.135342
 C    -1.587007    -2.642732     4.134611
 C    -1.887141    -1.314521     3.855822
 C    -1.643488    -0.788352     2.587929
 H    -2.470275     4.131922     0.167510
 H    -1.246305     6.255560     0.080930
 H     1.246332     6.255553    -0.080985
 H     2.470293     4.131913    -0.167515
 H     1.877319     0.253539    -2.395629
 H     2.312068    -0.675973    -4.625944
 H     1.774370    -3.052803    -5.123327
 H     0.778516    -4.476824    -3.341091
 H     0.335595    -3.540962    -1.113953
 H     1.212253    -0.129462     2.355056
 H     2.736047    -0.952738     4.085904
 H     4.222056    -2.899334     3.631464
 H     4.153160    -3.983341     1.393422
 H     2.638518    -3.152357    -0.342644
 H    -1.212213    -0.129397    -2.355095
 H    -2.736046    -0.952587    -4.085952
 H    -4.222144    -2.899109    -3.631538
 H    -4.153263    -3.983183    -1.393524
 H    -2.638559    -3.152319     0.342541
 H    -0.335663    -3.541021     1.113794
 H    -0.778576    -4.476963     3.340902
 H    -1.774366    -3.052993     5.123209
 H    -2.312017    -0.676126     4.625931
 H    -1.877259     0.253471     2.395647
