   58
scf done: -1977.685057
 I     3.526027     1.676054    -0.233506
 I    -3.525096     1.677536     0.233896
 C     0.839012    -0.850990     0.057087
 C    -0.839214    -0.850544    -0.056871
 C    -0.701456     0.650033     0.050224
 C    -1.427971     1.801237     0.108064
 C    -0.720835     3.045973     0.059882
 C    -1.385877     4.294346     0.115644
 C    -0.699595     5.482823     0.058814
 C     0.702188     5.482508    -0.058141
 C     1.387955     4.293730    -0.114963
 C     0.722371     3.045640    -0.059154
 C     1.428969     1.800583    -0.107334
 C     0.701971     0.649700    -0.049289
 C     1.367965    -1.326369     1.395216
 C     1.250093    -0.743496     2.647963
 C     1.832041    -1.378736     3.747361
 C     2.528951    -2.575800     3.586895
 C     2.691623    -3.137611     2.321528
 C     2.123563    -2.496912     1.225208
 C     2.266331    -2.745608    -0.209633
 C     2.998165    -3.717295    -0.883327
 C     3.102835    -3.638347    -2.270544
 C     2.501549    -2.589839    -2.964567
 C     1.753096    -1.622910    -2.289969
 C     1.610595    -1.716257    -0.912322
 C    -1.611379    -1.715830     0.912065
 C    -1.753797    -1.623131     2.289775
 C    -2.502945    -2.589889     2.963854
 C    -3.104977    -3.637588     2.269262
 C    -3.000362    -3.715865     0.882007
 C    -2.267849    -2.744333     0.208832
 C    -2.124881    -2.494984    -1.225863
 C    -2.693426    -3.134710    -2.322498
 C    -2.530419    -2.572352    -3.587575
 C    -1.832716    -1.375671    -3.747433
 C    -1.250298    -0.741407    -2.647717
 C    -1.368492    -1.324869    -1.395265
 H    -2.467918     4.297894     0.204679
 H    -1.242478     6.422577     0.104407
 H     1.245485     6.422020    -0.103746
 H     2.469997     4.296821    -0.204026
 H     0.732138     0.204260     2.773881
 H     1.748744    -0.930185     4.733454
 H     2.973971    -3.059825     4.452073
 H     3.277628    -4.044288     2.194419
 H     3.500609    -4.511624    -0.337284
 H     3.676025    -4.385967    -2.812267
 H     2.617987    -2.518751    -4.042425
 H     1.307386    -0.806253    -2.845162
 H    -1.307409    -0.807154     2.845419
 H    -2.619352    -2.519300     4.041748
 H    -3.678705    -4.385096     2.810572
 H    -3.503371    -4.509549     0.335545
 H    -3.280039    -4.041057    -2.195840
 H    -2.975777    -3.055632    -4.452995
 H    -1.749163    -0.926649    -4.733291
 H    -0.731826     0.206129    -2.773138
