   74
scf done: -1243.291122
 C    -0.621415    -0.028963    -0.122640
 C    -0.965782    -1.534765    -0.412285
 C     1.034851     0.184693     0.176957
 C    -2.390800    -1.732564    -0.966759
 C     1.205382     1.311450     1.226235
 C    -1.696305     0.381005     0.998685
 C     1.829060     0.597062    -1.117279
 C    -1.749383     1.884625     1.346514
 C    -2.442840     0.577897    -1.865276
 C     2.753111    -1.714143    -1.560501
 C    -1.019821     0.869188    -1.348021
 C    -3.150715     0.122072     0.440770
 C    -1.568119    -0.505074     2.248492
 C     3.269420     1.063207    -0.776558
 C     3.350021    -0.579203     1.061970
 C    -0.963967     2.374812    -1.026086
 C    -3.403202    -1.345332     0.115750
 C     1.898630    -1.031959     0.715043
 C    -3.455513     0.979121    -0.788687
 C     4.072282    -0.115208    -0.212419
 C     2.641539     1.730001     1.525355
 C     1.945384    -0.547897    -2.138523
 C     4.167242    -1.237379    -1.239642
 C     2.096627    -2.205389    -0.266753
 C    -1.838654    -1.980347     1.917817
 C     3.389414     0.535415     2.097636
 C    -1.959583     2.737838     0.083826
 C     3.284151     2.210790     0.227688
 C    -2.606105    -0.894110    -2.219890
 C    -3.362453     2.463277    -0.454017
 C    -0.870758    -2.442534     0.830637
 C    -3.256452    -2.171576     1.387911
 H    -0.349255     0.661419    -2.187346
 H     2.790345    -2.535039    -2.289131
 H     2.616850     2.549074     2.257428
 H     2.915627     0.208976     3.034404
 H    -1.880210    -1.180503    -2.994928
 H     0.133076    -2.499844     1.241768
 H    -4.471965     0.740961    -1.137809
 H    -2.600262     1.193976    -2.763689
 H     0.957977    -0.895889    -2.461741
 H    -1.238129     2.928162    -1.936609
 H     4.671778    -0.876944    -2.147575
 H     4.767340    -2.068655    -0.843075
 H    -3.832102     0.416975     1.255634
 H    -2.616261     2.032969     2.008800
 H    -4.122239     2.729161     0.294427
 H     4.317661     2.542504     0.401081
 H     0.045922     2.706725    -0.774819
 H     1.348551     1.451674    -1.600836
 H     2.731153     3.075921    -0.166120
 H    -3.607564    -1.076366    -2.635309
 H    -0.290455    -1.903344    -1.188839
 H     2.447263    -0.166751    -3.040050
 H     1.470459    -1.390371     1.658957
 H     3.732097     1.393958    -1.719222
 H    -3.440606    -3.236454     1.187065
 H    -4.002481    -1.847211     2.127514
 H    -0.572796    -0.407943     2.699688
 H    -2.503459    -2.799301    -1.213513
 H     4.431664     0.792700     2.334828
 H     0.736992     0.998563     2.165693
 H    -1.692100    -2.586328     2.822193
 H    -3.559933     3.071874    -1.348157
 H     0.682242     2.205491     0.894473
 H     2.758591    -2.940260     0.215025
 H     1.177898    -2.742992    -0.494303
 H    -0.892633     2.224731     1.924770
 H    -1.856391     3.801322     0.338177
 H    -4.423662    -1.450927    -0.283519
 H     3.864731    -1.465057     1.463733
 H    -1.131842    -3.466585     0.524293
 H    -2.287553    -0.157491     3.005649
 H     5.082202     0.231059     0.055296
