   23
scf done:  -739.325568
 C     7.874401     5.691651     9.888869
 C     8.062986     6.971448    10.376749
 C     7.043875     7.909334    10.236094
 C     5.856301     7.537003     9.606500
 C     5.719236     6.246805     9.137451
 N     6.719490     5.351900     9.283700
 C     6.530399     3.989348     8.769335
 C     7.558781     2.851155     8.849956
 C     5.430194     3.002816     9.210605
 C     6.251560     3.609672     7.300851
 C     6.297139     2.304979     8.133774
 I     6.037891     0.347802     7.400446
 H     8.622546     4.911587     9.963030
 H     9.001306     7.220500    10.859819
 H     7.171582     8.919683    10.612195
 H     5.039025     8.237905     9.477408
 H     4.826584     5.887235     8.638918
 H     7.763319     2.431306     9.838754
 H     8.455111     2.942445     8.230215
 H     4.402651     3.237132     8.919329
 H     5.503277     2.606031    10.226062
 H     7.067168     3.761526     6.589753
 H     5.274977     3.881636     6.891090
