   28
scf done:  -442.264269
 C     0.444744     7.190966     2.526728
 N     0.908472     6.847794     1.262651
 B    -0.975293     8.129805     2.579130
 C    -1.162468     6.481700     2.966562
 N    -1.735307     5.681336     1.985247
 B    -1.987586     7.580674     3.940382
 B    -0.925128     8.979559     4.133862
 B    -1.022908     7.741380     5.417526
 B     0.544648     8.433061     4.988921
 B     0.575236     8.711618     3.239665
 B     1.385209     7.297389     3.920085
 B     0.293330     5.914986     3.645115
 B    -1.177592     6.166542     4.621038
 B     0.396922     6.671560     5.244591
 H     0.900003     6.097052     6.157610
 H    -3.169143     7.612926     3.803552
 H    -1.790074     5.205296     4.962641
 H    -1.419873     8.490756     1.537726
 H     0.669042     4.843951     3.292743
 H     1.161243     9.139081     5.722563
 H     2.553028     7.121599     3.774727
 H     1.174144     9.529024     2.615985
 H    -1.552282     7.942080     6.464599
 H    -1.378743    10.074571     4.243109
 H    -1.832619     4.713669     2.263703
 H    -2.601095     6.054633     1.618666
 H     0.986112     7.637291     0.634985
 H     1.757090     6.297547     1.281606
