   55
scf done: -1020.378670
 B    -2.259027    -0.024563    -1.451534
 H    -1.492499    -0.098235    -2.353199
 B    -3.040106     1.451765    -0.934484
 H    -2.865510     2.439882    -1.570330
 B    -2.951027     1.533519     0.844744
 H    -2.761261     2.576766     1.380489
 B    -2.150555     0.096405     1.470556
 H    -1.316316     0.111146     2.310832
 B    -3.039031    -1.337043     1.003871
 H    -2.885470    -2.337158     1.627517
 B    -3.093604    -1.413730    -0.780358
 H    -2.984650    -2.462853    -1.327983
 B    -3.995560     0.014694    -1.372348
 H    -4.630319    -0.030697    -2.378111
 B    -3.880751     0.157061     1.509618
 H    -4.443011     0.235603     2.555696
 B    -4.485025    -0.797234     0.132745
 H    -5.497625    -1.418827     0.202274
 B    -4.442624     0.989834     0.040420
 H    -5.422490     1.665162     0.054602
 N    -0.327888     1.179793    -0.167647
 N    -0.381168    -1.188611     0.058434
 C    -1.697989     0.825023    -0.059073
 C    -1.743181    -0.779206     0.043455
 C     0.427640    -0.046239    -0.419604
 H     1.385352    -0.010158     0.106785
 H     0.632291    -0.157798    -1.496875
 C    -0.068580    -2.448935    -0.596752
 H    -0.186196    -2.374281    -1.692763
 H    -0.797334    -3.188812    -0.245784
 C     1.330435    -2.908199    -0.262001
 C     1.775922    -2.909787     1.063274
 H     1.112517    -2.545369     1.843678
 C     3.052945    -3.362208     1.376688
 H     3.388340    -3.358691     2.410460
 C     3.900483    -3.821731     0.369568
 H     4.898200    -4.175177     0.615185
 C     3.464564    -3.821566    -0.951828
 H     4.121017    -4.172731    -1.743370
 C     2.186876    -3.362351    -1.264769
 H     1.851645    -3.357091    -2.299821
 C     0.225938     2.083652     0.835459
 H     0.392902     1.577499     1.799537
 H    -0.523526     2.862833     1.010516
 C     1.511428     2.717775     0.361354
 C     2.597918     2.835619     1.228696
 H     2.525327     2.433337     2.237150
 C     3.771032     3.463669     0.815821
 H     4.608966     3.547981     1.502551
 C     3.870595     3.972958    -0.475238
 H     4.785950     4.459271    -0.801326
 C     2.792171     3.851618    -1.350417
 H     2.864833     4.245309    -2.360809
 C     1.620113     3.228966    -0.935093
 H     0.778951     3.126930    -1.615797
