   54
scf done:  -982.331266
 B    -1.203452     1.989150    -0.000000
 B    -0.777319     2.950381     1.450022
 B     0.985788     3.072123     1.445971
 B     1.527746     2.180598    -0.000000
 B    -1.390062     3.753014    -0.000000
 B     0.008749     4.436255     0.881094
 B     1.483034     3.956902    -0.000000
 C     0.191837     1.681163     0.935638
 N     0.329465     0.437266     1.534652
 C    -0.695721    -0.047057     2.451698
 H    -1.644635    -0.088533     1.903416
 H    -0.847053     0.640954     3.296627
 C    -0.337429    -1.414574     2.977313
 C    -0.563460    -1.731968     4.317923
 H    -0.976116    -0.978263     4.985210
 C    -0.263730    -3.000525     4.807364
 H    -0.445011    -3.231739     5.853544
 C     0.278086    -3.964885     3.961994
 H     0.518854    -4.953136     4.344121
 C     0.515121    -3.653872     2.624882
 H     0.939972    -4.400823     1.959356
 C     0.207341    -2.388194     2.136303
 H     0.392701    -2.138543     1.095481
 H    -2.068433     1.175655    -0.000000
 H     2.487978     4.594910    -0.000000
 H    -1.405795     2.781212     2.444828
 H     2.477404     1.463409    -0.000000
 H    -2.469428     4.254717    -0.000000
 H     1.625679     2.960728     2.443226
 H    -0.065175     5.434688     1.525353
 H     1.265030     0.294770     1.897258
 B    -0.777319     2.950381    -1.450022
 B     0.985788     3.072123    -1.445971
 B     0.008749     4.436255    -0.881094
 C     0.191837     1.681163    -0.935638
 N     0.329465     0.437266    -1.534652
 C    -0.695721    -0.047057    -2.451698
 H    -1.644635    -0.088533    -1.903416
 H    -0.847053     0.640954    -3.296627
 C    -0.337429    -1.414574    -2.977313
 C    -0.563460    -1.731968    -4.317923
 H    -0.976116    -0.978263    -4.985210
 C    -0.263730    -3.000525    -4.807364
 H    -0.445011    -3.231739    -5.853544
 C     0.278086    -3.964885    -3.961994
 H     0.518854    -4.953136    -4.344121
 C     0.515121    -3.653872    -2.624882
 H     0.939972    -4.400823    -1.959356
 C     0.207341    -2.388194    -2.136303
 H     0.392701    -2.138543    -1.095481
 H    -1.405795     2.781212    -2.444828
 H     1.625679     2.960728    -2.443226
 H    -0.065175     5.434688    -1.525353
 H     1.265030     0.294770    -1.897258
