   72
scf done: -1217.937507
 N     1.576817     0.511284     0.245544
 N    -1.539339     0.502188     0.186343
 C     4.198493    -3.048576     0.429292
 H     3.986780    -4.060868     0.769621
 C     3.144065    -2.253259    -0.018003
 C    -3.415637    -0.903784    -0.522367
 C     3.405265    -0.942562    -0.455216
 C     0.968266     1.747830     0.201073
 C     2.263812    -0.067815    -0.913639
 H     2.632159     0.730136    -1.566274
 H     1.546804    -0.654716    -1.500191
 C     5.511463    -2.580202     0.454027
 B    -1.424031     3.095083    -0.666487
 C    -0.939437     1.742130     0.189912
 B     0.036332     2.169529    -1.154919
 C    -5.677993    -1.174294     0.287129
 H    -6.627262    -0.729371     0.581058
 C     4.719793    -0.443646    -0.419784
 C    -3.247027    -2.297513    -0.477523
 C     5.747641    -1.273297     0.030806
 H     6.763438    -0.882867     0.056649
 C    -2.285413    -0.008282    -0.969289
 H    -1.603447    -0.552134    -1.631318
 H    -2.682876     0.833807    -1.546335
 B     1.475934     3.107888    -0.641373
 B    -0.005309     2.117071     1.564139
 C    -4.647041    -0.337669    -0.136011
 B     0.029478     3.949833    -1.190613
 C    -4.306208    -3.100589    -0.048879
 H    -4.167815    -4.179863    -0.018347
 C    -5.529384    -2.560864     0.339350
 B    -1.445290     3.065932     1.100132
 B     1.452280     3.059098     1.124833
 C     6.640543    -3.463979     0.905668
 H     7.037333    -4.053536     0.069095
 H     6.313761    -4.171300     1.674990
 H     7.470295    -2.877530     1.313098
 C     1.745044    -2.808858    -0.027110
 H     1.693756    -3.748386     0.530982
 H     1.402906    -3.016211    -1.049804
 H     1.030410    -2.107034     0.417009
 B    -0.866999     4.505814     0.251861
 C    -1.955819    -2.950357    -0.894361
 H    -1.963035    -4.015685    -0.645589
 H    -1.091329    -2.496851    -0.399433
 H    -1.790761    -2.868621    -1.976582
 B     0.893348     4.508000     0.271522
 C    -4.881237     1.148254    -0.190920
 H    -5.860327     1.401453     0.225731
 H    -4.856831     1.522765    -1.222177
 H    -4.125150     1.710475     0.368090
 B    -0.002227     3.888474     1.687986
 C    -6.656360    -3.437381     0.810248
 H    -6.861086    -3.281631     1.876687
 H    -6.425519    -4.497437     0.667618
 H    -7.584242    -3.218547     0.269396
 C     5.046341     0.961823    -0.851379
 H     6.101001     1.186332    -0.667821
 H     4.449320     1.707506    -0.313727
 H     4.860932     1.114165    -1.922045
 H     0.040092     1.438917    -2.091155
 H    -2.448901     2.909406     1.720896
 H    -0.008466     1.323055     2.450277
 H     1.535230     5.510532     0.300399
 H    -2.408259     2.998576    -1.326638
 H     2.442051     2.899284     1.767011
 H    -1.512271     5.506574     0.259535
 H     0.033727     4.546467    -2.220918
 H     2.477133     3.004025    -1.275256
 H    -0.009247     4.433300     2.746678
 H     2.031160     0.318820     1.128121
 H    -1.896409     0.206413     1.083925
