   68
FINAL HEAT OF FORMATION = -1614.906339
 C     9.144082    11.504194    15.351344
 C     8.167646    12.457145    15.663101
 C     7.054484    12.160047    16.519066
 C     6.904979    10.891447    17.078229
 C     7.901957     9.953533    16.746928
 C     7.692875     8.694315    17.344538
 C     8.642644     7.712899    17.062568
 C     9.759778     8.000018    16.207500
 C     9.930339     9.257493    15.636732
 C     8.970590    10.236606    15.926390
 C     5.986032    10.150247    17.965519
 C     6.447808     8.864224    18.120846
 C    10.418376    11.536966    14.483342
 C    11.428167    12.570412    15.036323
 C    11.127489    13.320915    16.190821
 C    12.028439    14.210439    16.775151
 C    13.304288    14.365663    16.232369
 C    13.635372    13.634360    15.099385
 C    12.719697    12.762302    14.469465
 C    13.198701    12.124127    13.250646
 C    12.478999    11.736273    12.179232
 C    11.042148    11.858266    11.972280
 C    10.632705    12.016532    10.629483
 C     9.303724    12.210203    10.276872
 C     8.342398    12.224195    11.287875
 C     8.724822    12.026043    12.614104
 C    10.064957    11.835786    13.007049
 C    11.015984     9.819937    14.703586
 C    12.324214     9.811834    15.531516
 C    12.181420    10.254186    16.866499
 C    13.234833    10.345739    17.771125
 C    14.519284     9.977416    17.369908
 C    14.696668     9.530998    16.069833
 C    13.635886     9.431774    15.132749
 C    14.050835     8.919930    13.834981
 C    13.331372     8.532620    12.765373
 C    11.893579     8.493925    12.542564
 C    11.521438     7.821604    11.349778
 C    10.203546     7.653871    10.954769
 C     9.199012     8.172490    11.772319
 C     9.544360     8.833980    12.946867
 C    10.875796     9.032201    13.378205
 H     8.233044    13.468041    15.253688
 H     6.332800    12.958473    16.715831
 H     8.561468     6.705983    17.482779
 H    10.481614     7.203262    16.011668
 H     5.084030    10.555249    18.425815
 H    10.164816    13.193836    16.678152
 H    11.733769    14.761531    17.671887
 H    14.031237    15.042680    16.687739
 H    14.629485    13.741725    14.657516
 H    14.286910    12.045005    13.167934
 H    13.041043    11.373560    11.313294
 H    11.402027    12.002941     9.852953
 H     9.021353    12.343616     9.229667
 H     7.285010    12.364267    11.049168
 H     7.936379    11.992815    13.360857
 H    11.197828    10.552010    17.222589
 H    13.045258    10.708208    18.784220
 H    15.365958    10.036665    18.058106
 H    15.694424     9.231879    15.738838
 H    15.134617     8.801933    13.739164
 H    13.913531     8.144597    11.923822
 H    12.322161     7.416487    10.725865
 H     9.963399     7.128030    10.027513
 H     8.145551     8.069502    11.501583
 H     8.728800     9.221696    13.553102
 H     5.967314     8.092716    18.723929
