   70
FINAL HEAT OF FORMATION = -1616.131825
 H     6.166328     5.844632    23.082509
 C     7.931792     4.529402    25.444041
 C     8.123538     5.918385    25.515151
 C     7.178415     6.695825    24.822028
 C     7.333400     8.073970    24.866136
 C     6.691829     4.289904    24.592025
 C     6.190657     5.729608    24.179005
 H     6.635437     8.739228    24.349831
 H     6.922896     3.676434    23.705226
 H     5.916243     3.740956    25.151725
 H     5.160777     5.909609    24.529873
 H    12.594805     8.059519    22.934339
 C    10.116780     5.704532    26.909935
 C     9.933858     4.322869    26.844567
 C     8.847684     3.732055    26.116107
 C     8.421151     8.662334    25.595201
 C     9.342398     7.875950    26.272292
 C     9.178904     6.488040    26.223095
 C    11.168458     6.597401    27.602584
 C    11.125303     6.401845    29.138117
 C    10.206991     5.506865    29.723048
 C    10.073684     5.347069    31.101892
 C    10.850497     6.114777    31.970050
 C    11.760281     7.011767    31.426220
 C    11.939254     7.153333    30.032061
 C    12.983796     8.084158    29.625672
 C    13.755584     8.032427    28.522107
 C    13.736557     7.032813    27.462349
 C    14.976493     6.795830    26.828196
 C    15.134214     5.827095    25.845978
 C    14.018861     5.082375    25.461397
 C    12.778384     5.334603    26.046325
 C    12.585087     6.304023    27.050861
 C    10.578206     8.249120    27.112145
 C    10.030687     9.010292    28.345092
 C     8.880320     8.433784    28.930067
 C     8.243270     8.943238    30.057283
 C    12.551119     8.636485    23.861137
 C    11.694789     8.233486    24.881079
 C    11.575758     8.900314    26.121716
 H    10.625894     3.649136    27.355914
 H     8.765244     2.641478    26.107436
 H     9.544609     4.927002    29.086524
 H     9.340347     4.636430    31.491701
 H    10.745823     6.018862    33.053569
 H    12.379773     7.622461    32.088259
 H    13.225988     8.857222    30.361170
 H    14.562751     8.767619    28.449869
 H    15.837470     7.390180    27.145194
 H    16.110349     5.658465    25.384579
 H    14.100936     4.317137    24.685245
 H    11.927858     4.767764    25.678305
 H     8.460260     7.532993    28.488747
 H     7.364550     8.431837    30.457364
 H    11.093324     7.345681    24.700337
 H    14.025900    10.112229    23.254580
 C     8.738285    10.098398    30.663484
 C     9.859587    10.697784    30.112181
 C    10.524534    10.191454    28.965249
 C    11.666990    10.993679    28.553235
 C    12.435020    10.938468    27.449273
 C    12.384124    10.058522    26.290961
 C    13.249156    10.455676    25.238371
 C    13.345439     9.769885    24.038003
 H     8.511447     9.751642    25.607064
 H     8.258327    10.523592    31.548261
 H    10.258240    11.607456    30.568358
 H    11.911197    11.797316    29.254818
 H    13.214515    11.703636    27.381460
 H    13.858037    11.349966    25.393405
