   66
FINAL HEAT OF FORMATION = -1538.775682
 C     8.126838    12.099842    17.199462
 C     7.963611    11.481398    18.427600
 C     7.462829    11.775319    20.899652
 H     8.360575    11.493937    16.319970
 H     8.067049    10.396836    18.519307
 H     7.544641    10.703432    21.098667
 C     7.704155    14.302723    18.137310
 C     8.000039    13.506334    17.041371
 C     7.659532    12.260255    19.576349
 C     7.169876    12.657752    21.925896
 C     7.055450    14.057305    21.704914
 C     7.241420    14.554545    20.431305
 C     7.539478    13.665583    19.383720
 C     7.517443    15.829881    18.232716
 C     6.331116    16.282817    17.335802
 C     5.572378    15.341095    16.612022
 C     4.453442    15.684775    15.853900
 C     4.020878    17.010192    15.812220
 C     4.738745    17.961852    16.523914
 C     5.899156    17.637011    17.261529
 C     6.570502    18.763829    17.895726
 C     7.886083    18.908133    18.147067
 C     8.962213    17.972915    17.847288
 C     8.826434    16.556464    17.813399
 C     7.167672    16.015356    19.953008
 C     5.688710    16.439985    20.173284
 C     4.733492    15.473161    19.785708
 C     3.357579    15.660933    19.872490
 C     2.858470    16.861623    20.378367
 C     3.765152    17.830482    20.777419
 C     5.171550    17.657681    20.695193
 C     5.926596    18.799330    21.190754
 C     7.240129    18.948148    21.441909
 C     8.350914    18.017651    21.303345
 C     8.335023    16.739409    20.680015
 H     8.139441    13.941920    16.049731
 H     7.021121    12.271783    22.937943
 H     6.822798    14.722410    22.539711
 H     5.835879    14.288444    16.657778
 H     3.908195    14.903697    15.317860
 H     3.135071    17.296280    15.239802
 H     4.416986    19.006464    16.507123
 H     5.931471    19.628751    18.097772
 H     8.211340    19.878802    18.533444
 H     5.077332    14.521900    19.386197
 H     2.683288    14.867947    19.540445
 H     1.783236    17.037993    20.460628
 H     3.394112    18.775209    21.182791
 H     5.301460    19.664999    21.430480
 H     7.532252    19.917758    21.856849
 H     9.588297    15.031283    20.251444
 C    10.216266    18.562455    17.571672
 C    11.326426    17.811143    17.210345
 C    11.196099    16.423917    17.145059
 C     9.976141    15.823842    17.455645
 C     9.557860    18.486083    21.885019
 C    10.733355    17.752365    21.884668
 C    10.724069    16.493688    21.282734
 C     9.549615    16.017427    20.708440
 H    10.295784    19.651096    17.631314
 H    12.279144    18.298779    16.989655
 H    12.049864    15.796147    16.877270
 H     9.940618    14.738380    17.444700
 H     9.542880    19.471312    22.357885
 H    11.639525    18.152879    22.345587
 H    11.626641    15.878681    21.253068
