  212
scf done: -3350.659150
 C     0.853206    -0.006286     0.014913
 C    -0.853206     0.006286    -0.014913
 C     1.497714     0.319428    -1.394809
 C    -1.497714    -0.319428     1.394809
 C    -1.454173     1.407393    -0.441197
 C     1.454173    -1.407393     0.441197
 C     1.448311     1.059251     1.022214
 C    -1.448311    -1.059251    -1.022214
 C     1.056662     1.120864     2.375514
 C    -1.056662    -1.120864    -2.375514
 C    -1.105920    -1.433372     2.172714
 C     1.105920     1.433372    -2.172714
 C     1.076648    -2.613459    -0.182479
 C    -1.076648     2.613459     0.182479
 C     2.510252     1.897215     0.640353
 C    -2.510252    -1.897215    -0.640353
 C    -2.609847     0.402615     1.852588
 C     2.609847    -0.402615    -1.852588
 C     2.536609    -1.478796     1.336394
 C    -2.536609     1.478796    -1.336394
 C     1.647667     1.998220     3.298360
 C    -1.647667    -1.998220    -3.298360
 C    -1.763959    -1.794714     3.355282
 C     1.763959     1.794714    -3.355282
 C     1.721887    -3.834852     0.070963
 C    -1.721887     3.834852    -0.070963
 C     3.158680     2.767919     1.534994
 C    -3.158680    -2.767919    -1.534994
 C    -3.322803     0.060729     3.019560
 C     3.322803    -0.060729    -3.019560
 C     3.230145    -2.672576     1.604878
 C    -3.230145     2.672576    -1.604878
 C     2.697539     2.819272     2.854729
 C    -2.697539    -2.819272    -2.854729
 C    -2.876304    -1.033174     3.760405
 C     2.876304     1.033174    -3.760405
 C     2.802103    -3.841997     0.966885
 C    -2.802103     3.841997    -0.966885
 H     0.276897     0.456343     2.728069
 H    -0.276897    -0.456343    -2.728069
 H    -0.272187    -2.037871     1.839281
 H     0.272187     2.037871    -1.839281
 H     0.269495    -2.602566    -0.905744
 H    -0.269495     2.602566     0.905744
 H     2.873826     1.860505    -0.381793
 H    -2.873826    -1.860505     0.381793
 H    -2.967546     1.249537     1.275806
 H     2.967546    -1.249537    -1.275806
 H     2.883567    -0.570824     1.820781
 H    -2.883567     0.570824    -1.820781
 C     1.199466     1.997041     4.779184
 C    -1.199466    -1.997041    -4.779184
 C    -1.336313    -3.002797     4.218333
 C     1.336313     3.002797    -4.218333
 C     1.239113    -5.126054    -0.630010
 C    -1.239113     5.126054     0.630010
 C     4.380846     3.583703     1.056269
 C    -4.380846    -3.583703    -1.056269
 C    -4.576222     0.872652     3.412589
 C     4.576222    -0.872652    -3.412589
 C     4.447070    -2.652318     2.556638
 C    -4.447070     2.652318    -2.556638
 H     3.175425     3.494662     3.558776
 H    -3.175425    -3.494662    -3.558776
 H    -3.402195    -1.317192     4.670519
 H     3.402195     1.317192    -4.670519
 H     3.322528    -4.774869     1.163299
 H    -3.322528     4.774869    -1.163299
 C     5.169289    -0.416673    -4.758510
 C    -5.169289     0.416673     4.758510
 C    -5.070304     4.048355    -2.740893
 C     5.070304    -4.048355     2.740893
 C     4.893500     4.556398     2.134531
 C    -4.893500    -4.556398    -2.134531
 C     5.657934    -0.687213    -2.322687
 C    -5.657934     0.687213     2.322687
 C    -5.533715     1.716628    -1.977508
 C     5.533715    -1.716628     1.977508
 C     5.525685     2.602569     0.708767
 C    -5.525685    -2.602569    -0.708767
 C     4.224694    -2.372473    -3.530227
 C    -4.224694     2.372473     3.530227
 C    -4.017471     2.134014    -3.946613
 C     4.017471    -2.134014     3.946613
 C     4.025849     4.410954    -0.198880
 C    -4.025849    -4.410954     0.198880
 C     1.042491     2.533575    -5.662421
 C    -1.042491    -2.533575     5.662421
 C    -2.160312     6.327371     0.345956
 C     2.160312    -6.327371    -0.345956
 C     1.702865     3.240269     5.539358
 C    -1.702865    -3.240269    -5.539358
 C     0.074023     3.691564    -3.675337
 C    -0.074023    -3.691564     3.675337
 C     0.179112     5.477084     0.127521
 C    -0.179112    -5.477084    -0.127521
 C    -0.339516     1.969315     4.892399
 C     0.339516    -1.969315    -4.892399
 C     2.480029     4.043736    -4.247996
 C    -2.480029    -4.043736     4.247996
 C    -1.192180     4.916133     2.159362
 C     1.192180    -4.916133    -2.159362
 C     1.777468     0.740581     5.470164
 C    -1.777468    -0.740581    -5.470164
 H     0.733642     3.388101    -6.286916
 H    -0.733642    -3.388101     6.286916
 H    -1.786111     7.214915     0.880347
 H     1.786111    -7.214915    -0.880347
 H     1.310119     3.229508     6.568412
 H    -1.310119    -3.229508    -6.568412
 H     1.923291     2.077241    -6.139022
 H    -1.923291    -2.077241     6.139022
 H    -3.191574     6.145353     0.687444
 H     3.191574    -6.145353    -0.687444
 H     2.800623     3.271071     5.614110
 H    -2.800623    -3.271071    -5.614110
 H     0.230061     1.790639    -5.679590
 H    -0.230061    -1.790639     5.679590
 H    -2.193875     6.581507    -0.724823
 H     2.193875    -6.581507     0.724823
 H     1.365915     4.174160     5.062146
 H    -1.365915    -4.174160    -5.062146
 H     2.196592     4.909423    -4.869476
 H    -2.196592    -4.909423     4.869476
 H    -0.860033     5.840029     2.661105
 H     0.860033    -5.840029    -2.661105
 H     1.465645     0.699505     6.527367
 H    -1.465645    -0.699505    -6.527367
 H     2.703401     4.413179    -3.234845
 H    -2.703401    -4.413179     3.234845
 H    -0.492036     4.117586     2.442015
 H     0.492036    -4.117586    -2.442015
 H     1.431339    -0.180990     4.978802
 H    -1.431339     0.180990    -4.978802
 H     3.408701     3.624559    -4.664828
 H    -3.408701    -3.624559     4.664828
 H    -2.185440     4.653512     2.555731
 H     2.185440    -4.653512    -2.555731
 H     2.878512     0.743852     5.441167
 H    -2.878512    -0.743852    -5.441167
 H    -0.200732     4.535747    -4.327708
 H     0.200732    -4.535747     4.327708
 H     0.560777     6.374975     0.642087
 H    -0.560777    -6.374975    -0.642087
 H    -0.639289     1.971302     5.953220
 H     0.639289    -1.971302    -5.953220
 H    -0.785277     3.006076    -3.636141
 H     0.785277    -3.006076     3.636141
 H     0.175595     5.685482    -0.954042
 H    -0.175595    -5.685482     0.954042
 H    -0.789688     2.851851     4.413030
 H     0.789688    -2.851851    -4.413030
 H     0.226658     4.092045    -2.663085
 H    -0.226658    -4.092045     2.663085
 H     0.886259     4.655774     0.312311
 H    -0.886259    -4.655774    -0.312311
 H    -0.780937     1.075714     4.430354
 H     0.780937    -1.075714    -4.430354
 H     6.049666    -1.031390    -5.004136
 H    -6.049666     1.031390     5.004136
 H    -5.928332     3.983767    -3.428606
 H     5.928332    -3.983767     3.428606
 H     5.749487     5.128183     1.742546
 H    -5.749487    -5.128183    -1.742546
 H     4.447779    -0.526532    -5.583395
 H    -4.447779     0.526532     5.583395
 H    -4.354604     4.765281    -3.172880
 H     4.354604    -4.765281     3.172880
 H     4.120086     5.280811     2.434855
 H    -4.120086    -5.280811    -2.434855
 H     5.500755     0.632999    -4.730689
 H    -5.500755    -0.632999     4.730689
 H    -5.440946     4.464610    -1.791178
 H     5.440946    -4.464610     1.791178
 H     5.238632     4.029997     3.037917
 H    -5.238632    -4.029997    -3.037917
 H     6.564292    -1.262721    -2.574942
 H    -6.564292     1.262721     2.574942
 H    -6.409950     1.682213    -2.646210
 H     6.409950    -1.682213     2.646210
 H     6.417036     3.153696     0.365010
 H    -6.417036    -3.153696    -0.365010
 H     5.944602     0.372459    -2.228249
 H    -5.944602    -0.372459     2.228249
 H    -5.874457     2.071482    -0.991673
 H     5.874457    -2.071482     0.991673
 H     5.814420     2.005759     1.588797
 H    -5.814420    -2.005759    -1.588797
 H     5.306806    -1.028497    -1.337342
 H    -5.306806     1.028497     1.337342
 H    -5.166146     0.686918    -1.854413
 H     5.166146    -0.686918     1.854413
 H     5.234008     1.903203    -0.089216
 H    -5.234008    -1.903203     0.089216
 H     5.119213    -2.954296    -3.807779
 H    -5.119213     2.954296     3.807779
 H    -4.882068     2.101693    -4.630320
 H     4.882068    -2.101693     4.630320
 H     4.910421     4.965597    -0.552978
 H    -4.910421    -4.965597     0.552978
 H     3.843665    -2.781698    -2.583261
 H    -3.843665     2.781698     2.583261
 H    -3.596592     1.120161    -3.893668
 H     3.596592    -1.120161     3.893668
 H     3.680046     3.776583    -1.027988
 H    -3.680046    -3.776583     1.027988
 H     3.457369    -2.539801    -4.302331
 H    -3.457369     2.539801     4.302331
 H    -3.255808     2.791150    -4.395716
 H     3.255808    -2.791150     4.395716
 H     3.233379     5.143335     0.019488
 H    -3.233379    -5.143335    -0.019488
