   66
FINAL HEAT OF FORMATION = -1139.961822
 N     5.731569     7.806366     3.951223
 C     5.590259     7.141849     2.676683
 C     4.822256     8.709457     4.489939
 C     5.067794     5.834369     2.600017
 C     4.957654     5.226194     1.337881
 H     4.542452     4.215143     1.282953
 C     6.069085     7.784736     1.505934
 C     5.950821     7.128815     0.277883
 H     6.320354     7.630510    -0.621522
 C     5.377422     5.853869     0.165018
 C     4.652623     5.033133     3.809337
 H     4.967969     5.509314     4.743382
 H     5.091189     4.023453     3.764821
 H     3.557894     4.905417     3.844603
 B     3.169240     8.197540     4.725600
 H     2.836653     7.146238     4.270309
 B     5.003891    10.381103     4.533129
 H     5.982444    10.816837     4.001915
 C     5.228681     5.192083    -1.182694
 H     6.151548     5.278788    -1.778392
 H     4.422569     5.666695    -1.768504
 H     4.983289     4.124160    -1.086099
 C     6.718452     9.146229     1.555611
 H     5.992647     9.935423     1.802277
 H     7.168023     9.395944     0.584353
 H     7.515513     9.201843     2.314866
 B     3.674480     9.572918     3.660398
 H     3.639023     9.425813     2.474716
 B     2.210321     9.707172     4.657399
 H     1.134508     9.744117     4.128920
 B     3.371475    11.070788     4.599153
 H     3.135863    12.100911     4.031293
 H     6.691008     8.012647     4.212473
 N     4.269125     6.963453     6.786662
 C     4.916225     6.753626     8.060748
 C     3.942292     8.202346     6.247130
 C     6.309737     6.551661     8.136353
 C     6.892300     6.342736     9.398091
 H     7.975453     6.196210     9.452271
 C     4.120831     6.660554     9.232041
 C     4.748788     6.434719    10.459650
 H     4.130136     6.365617    11.359475
 C     6.139643     6.293360    10.571509
 C     7.210214     6.510174     6.926327
 H     6.639285     6.469145     5.993032
 H     7.869427     5.628747     6.973478
 H     7.864049     7.397278     6.886899
 B     5.212358     9.377776     6.011020
 H     6.288876     9.140897     6.467179
 B     2.403783     8.880700     6.202625
 H     1.537070     8.251327     6.733936
 C     6.788029     6.090849    11.918729
 H     6.252006     5.334639    12.514454
 H     6.780272     7.026022    12.504930
 H     7.835556     5.769594    11.821325
 C     2.617061     6.779083     9.183173
 H     2.296477     7.801792     8.934784
 H     2.176620     6.516465    10.155209
 H     2.169839     6.115134     8.425481
 B     3.768005     9.628705     7.075321
 H     3.912648     9.586873     8.261107
 B     4.383920    10.963104     6.077448
 H     4.889477    11.913724     6.605433
 B     2.622632    10.639140     6.135113
 H     1.848018    11.358652     6.702053
 H     3.609679     6.236224     6.526636
