   58
FINAL HEAT OF FORMATION = -1978.464887
 I    -0.382862     0.564341     4.653374
 I    -0.400508    -4.564103    -0.293413
 C     0.813925    -2.936775     4.396894
 C     0.842570    -4.173460     3.179019
 C     0.105682    -3.142977     2.346393
 C    -0.452819    -2.963842     1.109040
 C    -1.051625    -1.689861     0.812287
 C    -1.656852    -1.405702    -0.442861
 C    -2.226005    -0.180266    -0.716940
 C    -2.219276     0.837279     0.262105
 C    -1.643875     0.606601     1.493547
 C    -1.045282    -0.640889     1.822010
 C    -0.443852    -0.893981     3.104143
 C     0.107976    -2.127218     3.327105
 C     0.068941    -3.297152     5.670273
 C    -1.291390    -3.497564     5.888987
 C    -1.734826    -3.847749     7.172622
 C    -0.825046    -3.990494     8.225964
 C     0.537794    -3.741247     8.024718
 C     0.976565    -3.374065     6.750791
 C     2.283573    -2.882809     6.292243
 C     3.464030    -2.645086     6.999416
 C     4.518762    -1.987599     6.355275
 C     4.380358    -1.553539     5.032471
 C     3.202103    -1.809469     4.316194
 C     2.166938    -2.506286     4.934403
 C     0.182387    -5.487986     3.554720
 C    -1.159144    -5.793832     3.769327
 C    -1.514602    -7.099572     4.137479
 C    -0.537059    -8.089489     4.285234
 C     0.807747    -7.802163     4.023292
 C     1.159276    -6.506746     3.638083
 C     2.431614    -5.971142     3.134021
 C     3.653258    -6.602981     2.891974
 C     4.659039    -5.897990     2.220163
 C     4.432578    -4.590731     1.775875
 C     3.212441    -3.949849     2.035743
 C     2.226046    -4.627475     2.747358
 H    -1.663534    -2.189318    -1.201605
 H    -2.681882     0.001253    -1.693222
 H    -2.669808     1.808999     0.046027
 H    -1.640776     1.394769     2.247577
 H    -2.014047    -3.359308     5.083601
 H    -2.801664    -4.003149     7.351486
 H    -1.184609    -4.270925     9.219328
 H     1.239427    -3.804333     8.860331
 H     3.555537    -2.939550     8.047956
 H     5.446106    -1.787432     6.898100
 H     5.194326    -1.004113     4.553063
 H     3.096986    -1.438401     3.296495
 H    -1.934916    -5.041012     3.628111
 H    -2.566295    -7.345541     4.303857
 H    -0.828729    -9.100761     4.580129
 H     1.563457    -8.588804     4.091198
 H     3.814445    -7.641075     3.193480
 H     5.617638    -6.381989     2.016398
 H     5.209588    -4.065365     1.215058
 H     3.036868    -2.941974     1.657105
