   74
FINAL HEAT OF FORMATION = -1243.829201
 C     0.830039     5.558620     9.032178
 C     1.592006     5.634864     7.648653
 C     0.875178     3.965433     9.690312
 C     1.828697     7.090895     7.170267
 C    -0.464874     3.702235    10.438505
 C    -0.597407     6.261071     8.705247
 C     2.066074     3.773895    10.719710
 C    -1.497705     6.518309     9.942026
 C     1.724573     7.961793     9.502224
 C     3.587842     2.561315     9.084905
 C     1.482956     6.544440    10.083056
 C    -0.334093     7.733569     8.159928
 C    -1.339448     5.518586     7.571291
 C     1.918346     2.437748    11.514616
 C     0.937027     1.362686     9.506128
 C     0.619174     6.714896    11.355709
 C     0.466692     7.738737     6.854122
 C     1.081760     2.712677     8.718231
 C     0.363547     8.618472     9.205690
 C     2.071892     1.244396    10.549419
 C    -0.551832     2.375491    11.200466
 C     3.453809     3.761634    10.038822
 C     3.451232     1.260355     9.884559
 C     2.467684     2.614152     8.031947
 C    -0.529822     5.544586     6.257664
 C    -0.415645     1.224875    10.204215
 C    -0.748379     7.338901    11.016443
 C     0.573327     2.337720    12.241320
 C     2.574049     7.900251     8.232307
 C    -0.491859     8.748375    10.468600
 C     0.849122     4.916574     6.494698
 C    -0.314379     6.983424     5.775836
 H     2.470898     6.166839    10.373227
 H     4.570020     2.594107     8.582796
 H    -1.532741     2.327891    11.704900
 H    -1.237229     1.262727     9.467507
 H     3.551250     7.433683     8.448853
 H     0.734355     3.845983     6.665491
 H     0.528511     9.618906     8.766384
 H     2.255064     8.550425    10.272208
 H     3.640151     4.699649     9.495895
 H     1.154000     7.386153    12.050835
 H     4.242969     1.187694    10.650863
 H     3.566427     0.387585     9.218430
 H    -1.335455     8.153535     7.953842
 H    -2.368388     7.105471     9.599330
 H    -1.444727     9.252146    10.230585
 H     0.533187     1.404928    12.830679
 H     0.496776     5.770983    11.899233
 H     2.049168     4.572347    11.470349
 H     0.456032     3.171015    12.956283
 H     2.782526     8.919517     7.862612
 H     2.587916     5.194713     7.773921
 H     4.232792     3.701564    10.819471
 H     0.283068     2.704678     7.962824
 H     2.737461     2.409316    12.255845
 H     0.237209     6.982589     4.819571
 H    -1.278830     7.488352     5.591217
 H    -1.550860     4.475752     7.856316
 H     2.437270     7.043241     6.249452
 H    -0.483408     0.245980    10.710689
 H    -1.292576     3.741483     9.716998
 H    -1.070659     4.967757     5.487595
 H     0.023112     9.370159    11.221733
 H    -0.643468     4.493158    11.167627
 H     2.487287     1.687145     7.432185
 H     2.657204     3.423536     7.323733
 H    -1.920974     5.602861    10.361316
 H    -1.365108     7.396024    11.929933
 H     0.623976     8.785028     6.535015
 H     1.045783     0.552702     8.763291
 H     1.458645     5.012136     5.578599
 H    -2.321698     5.998774     7.410696
 H     1.943981     0.302794    11.113380
