   23
FINAL HEAT OF FORMATION =  -739.598153
 C     7.879069     5.698166     9.893413
 C     8.069909     6.983634    10.381437
 C     7.049840     7.927903    10.237009
 C     5.858706     7.554485     9.603049
 C     5.719329     6.258390     9.134037
 N     6.720375     5.355837     9.283288
 C     6.527755     3.983233     8.768340
 C     7.561559     2.839879     8.845643
 C     5.426054     2.990210     9.217206
 C     6.242450     3.597976     7.294508
 C     6.292323     2.285232     8.131275
 I     6.026899     0.307701     7.396386
 H     8.634889     4.916821     9.974594
 H     9.013631     7.233270    10.869210
 H     7.179873     8.944990    10.613897
 H     5.038021     8.261371     9.470169
 H     4.818384     5.903857     8.631885
 H     7.776265     2.422929     9.840017
 H     8.462923     2.934710     8.223342
 H     4.390471     3.226089     8.933823
 H     5.501844     2.595663    10.239959
 H     7.058149     3.754556     6.575104
 H     5.261083     3.873998     6.883308
