   50
FINAL HEAT OF FORMATION =  -980.383750
 B     5.739330     3.528159     3.606686
 B     4.199795     4.430067     3.617648
 B     3.587400     4.429951     5.285932
 B     5.746229     5.302399     3.587968
 B     4.410349     5.867687     4.641395
 C     4.431869     3.090732     4.649609
 C     2.698794     1.660894     4.015801
 H     2.046247     2.520149     3.778444
 N     3.889549     1.818051     4.450317
 C     2.106950     0.333898     3.798922
 C     0.788616     0.240040     3.319940
 H     0.223266     1.153878     3.115519
 C     0.200821    -1.008274     3.105372
 H    -0.824435    -1.072594     2.733006
 C     0.927134    -2.173343     3.368097
 H     0.469063    -3.151654     3.200901
 C     2.242636    -2.088770     3.845831
 H     2.807551    -3.001855     4.050043
 C     2.830928    -0.845241     4.060659
 H     3.853545    -0.756374     4.432103
 H     2.424122     4.268838     5.515379
 H     6.048632     2.744309     2.763945
 H     3.460971     4.268728     2.690311
 H     6.107555     5.883258     2.603708
 H     3.798016     6.873814     4.416716
 B     4.754182     3.528162     6.290498
 B     6.293716     4.430072     6.279534
 B     6.906110     4.429952     4.611250
 B     4.747281     5.302402     6.309211
 B     6.083160     5.867689     5.255783
 C     6.061642     3.090733     5.247576
 C     7.794718     1.660898     5.881388
 H     8.447263     2.520154     6.118745
 N     6.603963     1.818052     5.446870
 C     8.386563     0.333903     6.098270
 C     9.704897     0.240047     6.577254
 H    10.270245     1.153886     6.781674
 C    10.292693    -1.008266     6.791824
 H    11.317949    -1.072584     7.164191
 C     9.566381    -2.173336     6.529099
 H    10.024453    -3.151647     6.696298
 C     8.250880    -2.088765     6.051364
 H     7.685966    -3.001851     5.847153
 C     7.662587    -0.845237     5.836534
 H     6.639970    -0.756373     5.465089
 H     8.069388     4.268837     4.381803
 H     4.444879     2.744314     7.133241
 H     7.032538     4.268733     7.206872
 H     4.385953     5.883263     7.293469
 H     6.695493     6.873816     5.480459
