   72
FINAL HEAT OF FORMATION = -1218.537143
 N    10.485105     9.147814     2.251440
 N     8.483043     6.680958     1.467197
 C    12.481352    11.906566    -0.672687
 H    12.700297    11.794448    -1.739053
 C    11.426698    11.170113    -0.118550
 C     6.939793     6.069321    -0.357163
 C    11.136240    11.302576     1.258798
 C     9.965304     8.408602     3.291375
 C    10.014122    10.489847     1.876362
 H     9.620197    10.999108     2.766868
 H     9.172683    10.404512     1.170145
 C    13.262910    12.775249     0.098718
 B     7.671375     6.745594     4.061022
 C     8.746892     6.870124     2.800391
 B     8.277780     8.375139     3.541359
 C     6.164365     3.921405    -1.187145
 H     5.741016     2.932338    -0.986484
 C    11.923620    12.162012     2.059184
 C     7.236963     6.455896    -1.682583
 C    12.967900    12.882525     1.462650
 H    13.573084    13.545544     2.088176
 C     7.216395     7.009952     0.801710
 H     7.230130     8.054265     0.453138
 H     6.407515     6.942836     1.543303
 B     9.453052     8.959917     4.787127
 B    10.380124     6.726228     3.284480
 C     6.395736     4.784459    -0.110177
 B     8.060969     7.984262     5.272591
 C     6.987795     5.558086    -2.732004
 H     7.219990     5.867089    -3.755527
 C     6.454258     4.285563    -2.508907
 B     9.072439     5.654798     3.912698
 B    10.852175     7.875973     4.598216
 C    14.372293    13.584993    -0.526871
 H    13.980862    14.520307    -0.964438
 H    14.869033    13.031613    -1.338921
 H    15.136331    13.866210     0.213569
 C    10.617675    10.250122    -1.004253
 H    11.081588    10.146336    -1.995609
 H     9.593761    10.632184    -1.158380
 H    10.520639     9.244487    -0.567015
 B     8.616864     6.291235     5.507355
 C     7.805201     7.819326    -2.008266
 H     8.076237     7.885834    -3.071709
 H     8.707702     8.043689    -1.420126
 H     7.079974     8.625569    -1.804065
 B     9.694947     7.620133     5.931782
 C     6.046533     4.330672     1.287940
 H     5.660913     3.301395     1.282541
 H     5.273084     4.971718     1.743055
 H     6.915943     4.360742     1.962570
 B    10.339462     6.226028     5.003147
 C     6.203685     3.324647    -3.645384
 H     6.870785     2.448080    -3.580280
 H     6.371060     3.799627    -4.623316
 H     5.170163     2.941729    -3.626250
 C    11.669359    12.323754     3.540869
 H    12.425330    12.977519     3.998545
 H    11.694257    11.360210     4.073995
 H    10.681548    12.772082     3.741226
 H     7.593909     9.117375     2.901560
 H     8.986291     4.535672     3.495268
 H    11.165236     6.366265     2.453592
 H    10.013922     7.853816     7.064347
 H     6.548261     6.429639     3.795680
 H    11.986395     8.258861     4.653696
 H     8.140668     5.560129     6.330632
 H     7.182434     8.472141     5.927081
 H     9.548153    10.135697     4.989948
 H    11.133801     5.450343     5.456701
 H    11.455234     8.953527     2.029191
 H     9.118651     6.077274     0.959425
