   54
FINAL HEAT OF FORMATION =  -982.814435
 B     1.092298    -0.114088     8.164771
 B     0.801668     1.422896     9.070854
 B    -0.965683     1.542617     9.242098
 B    -1.590729     0.079484     8.399327
 B     1.341972    -0.040714     9.926244
 B     0.014856     0.962846    10.608795
 B    -1.530048     0.154878    10.186562
 C    -0.232122     0.956008     7.851265
 N    -0.337796     1.499246     6.583091
 C     0.724962     2.331216     6.006438
 H     1.665861     1.763196     6.039918
 H     0.879430     3.246619     6.606774
 C     0.395121     2.714302     4.580930
 C    -0.316461     3.893185     4.311904
 H    -0.601383     4.551781     5.137994
 C    -0.653839     4.241887     3.000253
 H    -1.205417     5.165569     2.807820
 C    -0.277943     3.414965     1.938510
 H    -0.535020     3.688583     0.912096
 C     0.436400     2.239365     2.194166
 H     0.741169     1.592173     1.367781
 C     0.767447     1.891524     3.506019
 H     1.326556     0.972293     3.699118
 H     1.953549    -0.197266     7.341356
 H    -2.526794     0.243499    10.847120
 H     1.511989     2.361831     8.858494
 H    -2.569479     0.103148     7.708578
 H     2.438630    -0.080719    10.409097
 H    -1.562231     2.574342     9.119965
 H     0.154494     1.646999    11.583872
 H    -1.274641     1.812347     6.347262
 B     0.625279    -1.501398     9.222256
 B    -1.145180    -1.373407     9.370066
 B    -0.097647    -0.796726    10.693792
 C    -0.345198    -1.026817     7.945641
 N    -0.551753    -1.675517     6.747101
 C     0.438081    -2.542901     6.121749
 H     1.420101    -2.050558     6.204879
 H     0.530507    -3.507706     6.655250
 C     0.118724    -2.803562     4.662458
 C     0.358280    -4.066934     4.102857
 H     0.742449    -4.873273     4.734531
 C     0.109084    -4.307156     2.748365
 H     0.301046    -5.297985     2.328781
 C    -0.393590    -3.286722     1.936127
 H    -0.594970    -3.475093     0.878544
 C    -0.643376    -2.025718     2.487055
 H    -1.039560    -1.221799     1.861099
 C    -0.387991    -1.784969     3.839728
 H    -0.583767    -0.801097     4.271189
 H     1.202083    -2.543007     9.098133
 H    -1.870506    -2.326334     9.343862
 H    -0.047335    -1.396401    11.731171
 H    -1.515180    -1.948936     6.579991
