   55
FINAL HEAT OF FORMATION = -1020.863285
 B     0.345027     0.728839    12.653382
 H    -0.834345     0.903403    12.615991
 B     1.244629     0.310610    14.098436
 H     0.642533     0.087164    15.107347
 B     2.718031     1.333514    14.169677
 H     3.101505     1.745860    15.223990
 B     2.802305     2.386923    12.756411
 H     3.078827     3.545126    12.803383
 B     2.822506     1.426527    11.287832
 H     3.247450     1.911671    10.280118
 B     1.325867     0.432395    11.221832
 H     0.779173     0.260972    10.172496
 B     1.344793    -0.697336    12.622168
 H     0.826407    -1.776142    12.559401
 B     3.743237     0.928007    12.747845
 H     4.938644     1.000481    12.796220
 B     2.862357    -0.285536    11.775140
 H     3.443710    -1.095063    11.109135
 B     2.809332    -0.351333    13.574880
 H     3.361369    -1.200244    14.216342
 N     0.460427     3.041064    13.914128
 N     0.601447     3.170293    11.546758
 C     1.261970     1.939172    13.510606
 C     1.328656     2.002017    11.907393
 C    -0.166452     3.630605    12.725614
 H    -0.153122     4.729298    12.796063
 H    -1.226294     3.314857    12.633200
 C    -0.109134     3.189531    10.275020
 H    -1.027265     2.566806    10.313131
 H     0.552147     2.732341     9.522142
 C    -0.470113     4.597053     9.836679
 C     0.489371     5.622214     9.861771
 H     1.493189     5.403903    10.235132
 C     0.167014     6.907504     9.421648
 H     0.924281     7.695564     9.446268
 C    -1.119620     7.187565     8.947461
 H    -1.371247     8.193878     8.603054
 C    -2.081077     6.174722     8.920026
 H    -3.089865     6.385008     8.555546
 C    -1.757332     4.888825     9.365772
 H    -2.516532     4.101361     9.347112
 C     0.951838     3.951973    14.945047
 H     1.698802     4.665172    14.543563
 H     1.475366     3.339283    15.694779
 C    -0.166907     4.719153    15.625326
 C    -0.024062     6.086982    15.896840
 H     0.884177     6.608213    15.579878
 C    -1.029099     6.791815    16.567464
 H    -0.901210     7.858154    16.770778
 C    -2.195330     6.135841    16.968630
 H    -2.983994     6.685329    17.488887
 C    -2.350055     4.771937    16.696325
 H    -3.260696     4.252377    17.005967
 C    -1.343827     4.069136    16.030415
 H    -1.466910     3.005016    15.813953
