   66
scf done: -1539.839486
 C     0.001089     4.210994     1.644918
 C     0.001601     4.708555     0.355149
 C     0.002044     4.169754    -2.122246
 H     0.001133     4.901500     2.484402
 H     0.002095     5.781535     0.179338
 H     0.002546     5.219574    -2.404943
 C     0.000416     1.910442     0.866916
 C     0.000506     2.816813     1.913843
 C     0.001553     3.814523    -0.746617
 C     0.001916     3.184497    -3.092408
 C     0.001283     1.803642    -2.761723
 C     0.000793     1.431096    -1.435116
 C     0.000926     2.425297    -0.443432
 C     0.000040     0.368219     0.890397
 C    -1.276212    -0.157296     1.606422
 C    -2.249881     0.734522     2.094017
 C    -3.440945     0.312739     2.680733
 C    -3.724817    -1.047438     2.780192
 C    -2.791418    -1.952469     2.298299
 C    -1.563147    -1.542689     1.739412
 C    -0.672593    -2.622560     1.339069
 C     0.672089    -2.622699     1.339115
 C     1.562939    -1.543047     1.739335
 C     1.276339    -0.157584     1.606333
 C    -0.000028     0.011778    -0.839015
 C    -1.355840    -0.609449    -1.277250
 C    -2.465129     0.255007    -1.158581
 C    -3.769094    -0.108863    -1.472857
 C    -4.027992    -1.393034    -1.947669
 C    -2.962939    -2.265933    -2.085166
 C    -1.627537    -1.914149    -1.767006
 C    -0.673582    -2.984889    -2.008862
 C     0.669818    -2.985634    -2.009195
 C     1.625037    -1.915981    -1.767500
 C     1.354936    -0.611079    -1.277404
 H     0.000133     2.478453     2.945980
 H     0.002259     3.469725    -4.141330
 H     0.001168     1.058399    -3.551977
 H    -2.100179     1.799149     1.989623
 H    -4.152593     1.054458     3.033883
 H    -4.656311    -1.395644     3.218074
 H    -2.990897    -3.019275     2.364437
 H    -1.167176    -3.563416     1.106245
 H     1.166493    -3.563682     1.106331
 H    -2.308163     1.261417    -0.794534
 H    -4.572302     0.610899    -1.342222
 H    -5.036194    -1.706209    -2.204589
 H    -3.143786    -3.269884    -2.460970
 H    -1.141884    -3.932603    -2.269071
 H     1.136941    -3.933858    -2.269700
 H     2.309590     1.258492    -0.794233
 C     2.791199    -1.953110     2.298049
 C     3.724896    -1.048289     2.779763
 C     3.441307     0.311941     2.680336
 C     2.250231     0.734002     2.093833
 C     2.959984    -2.269276    -2.085908
 C     4.026091    -1.397716    -1.948237
 C     3.768813    -0.113371    -1.473022
 C     2.465318     0.251993    -1.158554
 H     2.990406    -3.019966     2.364253
 H     4.656381    -1.396694     3.217508
 H     4.153195     1.053513     3.033307
 H     2.100709     1.798670     1.989560
 H     3.139584    -3.273364    -2.461985
 H     5.033873    -1.712039    -2.205392
 H     4.572933     0.605324    -1.342170
