   68
scf done: -1616.023580
 C     1.529277    -0.000252     1.129571
 C     2.388711    -0.000422     2.231682
 C     3.815830    -0.000499     2.088399
 C     4.402570    -0.000390     0.826743
 C     3.513522    -0.000196    -0.263431
 C     4.171379    -0.000068    -1.507797
 C     3.355654     0.000164    -2.635438
 C     1.927239     0.000226    -2.504189
 C     1.315842     0.000072    -1.256461
 C     2.145516    -0.000151    -0.128872
 C     5.741482    -0.000411     0.206285
 C     5.605479    -0.000221    -1.158855
 C    -0.006933    -0.000072     0.984218
 C    -0.614450     1.275200     1.615228
 C     0.213165     2.245429     2.210914
 C    -0.274929     3.441361     2.732200
 C    -1.635284     3.731876     2.651622
 C    -2.476387     2.799596     2.063009
 C    -2.004746     1.565991     1.568619
 C    -3.026827     0.672977     1.042516
 C    -3.027029    -0.672334     1.042493
 C    -2.005164    -1.565663     1.568456
 C    -2.477078    -2.799253     2.062642
 C    -1.636194    -3.731794     2.651133
 C    -0.275768    -3.441586     2.731787
 C     0.212594    -2.245706     2.210666
 C    -0.614803    -1.275197     1.615101
 C    -0.166090     0.000053    -0.842403
 C    -0.734726     1.354732    -1.330224
 C     0.106499     2.464797    -1.100584
 C    -0.223305     3.770634    -1.444031
 C    -1.444430     4.030394    -2.062637
 C    -2.292434     2.964647    -2.309996
 C    -1.975632     1.627654    -1.965013
 C    -3.006954     0.672034    -2.335932
 C    -3.007064    -0.671785    -2.335803
 C    -1.975839    -1.627481    -1.964816
 C    -2.292792    -2.964465    -2.309632
 C    -1.444752    -4.030241    -2.062470
 C    -0.223421    -3.770498    -1.444291
 C     0.106515    -2.464654    -1.100948
 C    -0.734774    -1.354586    -1.330308
 H     1.984976    -0.000455     3.240519
 H     4.416639    -0.000611     2.995241
 H     3.775769     0.000317    -3.638842
 H     1.326466     0.000432    -3.409465
 H     6.683688    -0.000548     0.742388
 H     1.281097     2.085488     2.248883
 H     0.417602     4.151155     3.176966
 H    -2.032111     4.667696     3.035554
 H    -3.541841     3.004315     1.991491
 H    -3.933577     1.166210     0.698146
 H    -3.933943    -1.165271     0.698132
 H    -3.542577    -3.003729     1.991064
 H    -2.033211    -4.667614     3.034873
 H     0.416565    -4.151578     3.176540
 H     1.280562    -2.086000     2.248630
 H     1.063873     2.307282    -0.622354
 H     0.473359     4.574537    -1.223662
 H    -1.729017     5.040121    -2.345383
 H    -3.246684     3.147003    -2.797890
 H    -3.916863     1.139151    -2.708835
 H    -3.917076    -1.138829    -2.708534
 H    -3.247154    -3.146807    -2.797304
 H    -1.729515    -5.039980    -2.345004
 H     0.473310    -4.574406    -1.224161
 H     1.064044    -2.307162    -0.623005
 H     6.424810    -0.000194    -1.868914
