   70
scf done: -1617.251287
 H    -6.122406    -0.877863    -1.659756
 C    -4.342502    -0.000097     0.880067
 C    -3.491515     0.000060    -0.234180
 C    -4.130383     0.000154    -1.484683
 C    -3.324345     0.000238    -2.610887
 C    -5.773877    -0.000095     0.355103
 C    -5.632653     0.000102    -1.221306
 H    -3.752201     0.000309    -3.610781
 H    -6.332819    -0.878145     0.700823
 H    -6.332911     0.877816     0.701036
 H    -6.122421     0.878177    -1.659526
 H    -0.434207    -4.576206    -1.199211
 C    -1.477413    -0.000104     1.141966
 C    -2.316462    -0.000262     2.254373
 C    -3.744877    -0.000259     2.129559
 C    -1.896034     0.000231    -2.484194
 C    -1.285429     0.000141    -1.240189
 C    -2.105789     0.000061    -0.109534
 C     0.058618    -0.000074     0.982089
 C     0.674562     1.273341     1.611650
 C    -0.144688     2.241061     2.222645
 C     0.350269     3.434432     2.743430
 C     1.709480     3.725528     2.646770
 C     2.542738     2.795615     2.043473
 C     2.064331     1.564239     1.550035
 C     3.079726     0.672652     1.008526
 C     3.079768    -0.672591     1.008468
 C     2.064425    -1.564294     1.549901
 C     2.542918    -2.795652     2.043288
 C     1.709708    -3.725687     2.646478
 C     0.350464    -3.434745     2.743036
 C    -0.144572    -2.241379     2.222301
 C     0.674628    -1.273516     1.611473
 C     0.201220     0.000066    -0.836888
 C     0.767285     1.354654    -1.330431
 C    -0.068807     2.465613    -1.087222
 C     0.258087     3.771834    -1.431425
 C     0.257902    -3.771679    -1.431761
 C    -0.068959    -2.465455    -1.087492
 C     0.767205    -1.354529    -1.330531
 H    -1.897379    -0.000399     3.257264
 H    -4.338354    -0.000391     3.040932
 H    -1.212010     2.080672     2.272231
 H    -0.336379     4.142226     3.200552
 H     2.111282     4.659713     3.029671
 H     3.607282     3.000383     1.959041
 H     3.981357     1.166423     0.651629
 H     3.981430    -1.166275     0.651530
 H     3.607484    -3.000331     1.958896
 H     2.111598    -4.659834     3.029377
 H    -0.336163    -4.142642     3.200033
 H    -1.211918    -2.081116     2.271787
 H    -1.019628     2.306560    -0.596786
 H    -0.433934     4.576395    -1.198740
 H    -1.019827    -2.306410    -0.597142
 H     1.752527    -5.041566    -2.351563
 C     1.470625     4.031643    -2.067021
 C     2.313012     2.965209    -2.329269
 C     1.999245     1.627810    -1.982112
 C     3.024285     0.671939    -2.369721
 C     3.024304    -0.671845    -2.369652
 C     1.999227    -1.627707    -1.982108
 C     2.312969    -2.965092    -2.329303
 C     1.470492    -4.031509    -2.067224
 H    -1.295830     0.000301    -3.390310
 H     1.752654     5.041714    -2.351328
 H     3.260287     3.147068    -2.830861
 H     3.928511     1.138919    -2.756561
 H     3.928556    -1.138830    -2.756420
 H     3.260287    -3.146973    -2.830808
