  212
scf done: -3353.023749
 C     0.855253    -0.003383     0.014114
 C    -0.855253     0.003383    -0.014114
 C     1.495406     0.327082    -1.397791
 C    -1.495406    -0.327082     1.397791
 C    -1.460938     1.404447    -0.439517
 C     1.460938    -1.404447     0.439517
 C     1.445649     1.063486     1.024454
 C    -1.445649    -1.063486    -1.024454
 C     1.060406     1.118551     2.378591
 C    -1.060406    -1.118551    -2.378591
 C    -1.106594    -1.446691     2.167727
 C     1.106594     1.446691    -2.167727
 C     1.087309    -2.612076    -0.181154
 C    -1.087309     2.612076     0.181154
 C     2.505297     1.902110     0.642542
 C    -2.505297    -1.902110    -0.642542
 C    -2.605142     0.393161     1.859079
 C     2.605142    -0.393161    -1.859079
 C     2.544877    -1.470063     1.331354
 C    -2.544877     1.470063    -1.331354
 C     1.650048     1.997525     3.299754
 C    -1.650048    -1.997525    -3.299754
 C    -1.761726    -1.810399     3.349376
 C     1.761726     1.810399    -3.349376
 C     1.729633    -3.831557     0.083575
 C    -1.729633     3.831557    -0.083575
 C     3.149665     2.774776     1.535006
 C    -3.149665    -2.774776    -1.535006
 C    -3.314523     0.047686     3.025132
 C     3.314523    -0.047686    -3.025132
 C     3.236814    -2.661138     1.606430
 C    -3.236814     2.661138    -1.606430
 C     2.692491     2.823491     2.854655
 C    -2.692491    -2.823491    -2.854655
 C    -2.871036    -1.049935     3.758738
 C     2.871036     1.049935    -3.758738
 C     2.807553    -3.833532     0.978903
 C    -2.807553     3.833532    -0.978903
 H     0.291331     0.450664     2.732141
 H    -0.291331    -0.450664    -2.732141
 H    -0.280313    -2.049346     1.830871
 H     0.280313     2.049346    -1.830871
 H     0.286098    -2.605324    -0.902785
 H    -0.286098     2.605324     0.902785
 H     2.867891     1.864714    -0.373449
 H    -2.867891    -1.864714     0.373449
 H    -2.961659     1.238182     1.290182
 H     2.961659    -1.238182    -1.290182
 H     2.890791    -0.564834     1.807949
 H    -2.890791     0.564834    -1.807949
 C     1.204925     1.986490     4.780074
 C    -1.204925    -1.986490    -4.780074
 C    -1.339761    -3.026433     4.201652
 C     1.339761     3.026433    -4.201652
 C     1.252584    -5.124258    -0.615217
 C    -1.252584     5.124258     0.615217
 C     4.367507     3.592145     1.053234
 C    -4.367507    -3.592145    -1.053234
 C    -4.563444     0.861202     3.422725
 C     4.563444    -0.861202    -3.422725
 C     4.453634    -2.634696     2.555425
 C    -4.453634     2.634696    -2.555425
 H     3.166128     3.498632     3.553447
 H    -3.166128    -3.498632    -3.553447
 H    -3.395652    -1.336738     4.662126
 H     3.395652     1.336738    -4.662126
 H     3.323844    -4.761065     1.181806
 H    -3.323844     4.761065    -1.181806
 C     5.173366    -0.388744    -4.756767
 C    -5.173366     0.388744     4.756767
 C    -5.081986     4.028679    -2.748649
 C     5.081986    -4.028679     2.748649
 C     4.896268     4.554459     2.134879
 C    -4.896268    -4.554459    -2.134879
 C     5.639978    -0.706168    -2.321522
 C    -5.639978     0.706168     2.321522
 C    -5.539964     1.699231    -1.972064
 C     5.539964    -1.699231     1.972064
 C     5.508253     2.613013     0.682447
 C    -5.508253    -2.613013    -0.682447
 C     4.201149    -2.357314    -3.568616
 C    -4.201149     2.357314     3.568616
 C    -4.026280     2.108330    -3.944380
 C     4.026280    -2.108330     3.944380
 C     4.002934     4.433435    -0.191545
 C    -4.002934    -4.433435     0.191545
 C     1.070323     2.579783    -5.658947
 C    -1.070323    -2.579783     5.658947
 C    -2.111533     6.349221     0.243985
 C     2.111533    -6.349221    -0.243985
 C     1.794625     3.165994     5.580273
 C    -1.794625    -3.165994    -5.580273
 C     0.064673     3.704929    -3.671658
 C    -0.064673    -3.704929     3.671658
 C     0.207972     5.423512     0.206629
 C    -0.207972    -5.423512    -0.206629
 C    -0.333807     2.065731     4.896908
 C     0.333807    -2.065731    -4.896908
 C     2.479813     4.073632    -4.201901
 C    -2.479813    -4.073632     4.201901
 C    -1.314893     4.949609     2.149746
 C     1.314893    -4.949609    -2.149746
 C     1.689620     0.672553     5.436602
 C    -1.689620    -0.672553    -5.436602
 H     0.775748     3.442322    -6.269482
 H    -0.775748    -3.442322     6.269482
 H    -1.732033     7.233946     0.768011
 H     1.732033    -7.233946    -0.768011
 H     1.408351     3.141995     6.605731
 H    -1.408351    -3.141995    -6.605731
 H     1.954368     2.132220    -6.124836
 H    -1.954368    -2.132220     6.124836
 H    -3.160252     6.218430     0.535018
 H     3.160252    -6.218430    -0.535018
 H     2.887471     3.119082     5.644676
 H    -2.887471    -3.119082    -5.644676
 H     0.260721     1.843065    -5.702434
 H    -0.260721    -1.843065     5.702434
 H    -2.078017     6.564426    -0.830165
 H     2.078017    -6.564426     0.830165
 H     1.518197     4.132342     5.142766
 H    -1.518197    -4.132342    -5.142766
 H     2.204632     4.936959    -4.820749
 H    -2.204632    -4.936959     4.820749
 H    -0.973676     5.865009     2.649533
 H     0.973676    -5.865009    -2.649533
 H     1.369250     0.625037     6.485253
 H    -1.369250    -0.625037    -6.485253
 H     2.680546     4.435538    -3.187221
 H    -2.680546    -4.435538     3.187221
 H    -0.676971     4.128428     2.488204
 H     0.676971    -4.128428    -2.488204
 H     1.285619    -0.203617     4.919261
 H    -1.285619     0.203617    -4.919261
 H     3.412700     3.660979    -4.601047
 H    -3.412700    -3.660979     4.601047
 H    -2.338465     4.743899     2.482755
 H     2.338465    -4.743899    -2.482755
 H     2.783149     0.602007     5.413982
 H    -2.783149    -0.602007    -5.413982
 H    -0.203048     4.545984    -4.322259
 H     0.203048    -4.545984     4.322259
 H     0.570117     6.323653     0.719974
 H    -0.570117    -6.323653    -0.719974
 H    -0.628899     2.033949     5.953288
 H     0.628899    -2.033949    -5.953288
 H    -0.786097     3.016102    -3.648087
 H     0.786097    -3.016102     3.648087
 H     0.286578     5.597976    -0.872711
 H    -0.286578    -5.597976     0.872711
 H    -0.713531     3.000531     4.470734
 H     0.713531    -3.000531    -4.470734
 H     0.201024     4.100104    -2.660485
 H    -0.201024    -4.100104     2.660485
 H     0.875605     4.596949     0.465814
 H    -0.875605    -4.596949    -0.465814
 H    -0.835726     1.237372     4.390175
 H     0.835726    -1.237372    -4.390175
 H     6.046346    -1.004917    -5.000726
 H    -6.046346     1.004917     5.000726
 H    -5.936525     3.954636    -3.431034
 H     5.936525    -3.954636     3.431034
 H     5.745237     5.122883     1.738052
 H    -5.745237    -5.122883    -1.738052
 H     4.461619    -0.480072    -5.585422
 H    -4.461619     0.480072     5.585422
 H    -4.371799     4.740287    -3.185294
 H     4.371799    -4.740287     3.185294
 H     4.132063     5.275357     2.447814
 H    -4.132063    -5.275357    -2.447814
 H     5.510850     0.652886    -4.707928
 H    -5.510850    -0.652886     4.707928
 H    -5.450066     4.447386    -1.805000
 H     5.450066    -4.447386     1.805000
 H     5.247618     4.019891     3.024733
 H    -5.247618    -4.019891    -3.024733
 H     6.536795    -1.284048    -2.578466
 H    -6.536795     1.284048     2.578466
 H    -6.409715     1.660422    -2.640024
 H     6.409715    -1.660422     2.640024
 H     6.391678     3.166086     0.338995
 H    -6.391678    -3.166086    -0.338995
 H     5.935218     0.343530    -2.207133
 H    -5.935218    -0.343530     2.207133
 H    -5.881286     2.057809    -0.993885
 H     5.881286    -2.057809     0.993885
 H     5.802637     2.008499     1.548491
 H    -5.802637    -2.008499    -1.548491
 H     5.279201    -1.060321    -1.350465
 H    -5.279201     1.060321     1.350465
 H    -5.170889     0.676515    -1.843716
 H     5.170889    -0.676515     1.843716
 H     5.208323     1.928265    -0.117588
 H    -5.208323    -1.928265     0.117588
 H     5.092037    -2.938230    -3.838369
 H    -5.092037     2.938230     3.838369
 H    -4.889024     2.073509    -4.621600
 H     4.889024    -2.073509     4.621600
 H     4.884517     4.979565    -0.549633
 H    -4.884517    -4.979565     0.549633
 H     3.801663    -2.772919    -2.638579
 H    -3.801663     2.772919     2.638579
 H    -3.608079     1.099658    -3.884430
 H     3.608079    -1.099658     3.884430
 H     3.641698     3.810612    -1.015634
 H    -3.641698    -3.810612     1.015634
 H     3.449422    -2.504914    -4.352165
 H    -3.449422     2.504914     4.352165
 H    -3.268715     2.759828    -4.395415
 H     3.268715    -2.759828     4.395415
 H     3.223716     5.166837     0.043176
 H    -3.223716    -5.166837    -0.043176
