   66
scf done: -2158.958334
Cl     2.945712     2.527054     0.606919
Cl     0.697134    -3.257439    -0.660511
 C     0.447258    -0.544866    -0.314096
 C    -1.015543    -0.233900     0.020501
 C    -0.450824     1.421710     0.063666
 C     0.934816     0.752855    -0.028032
 C     2.285403     0.984619     0.066437
 C     3.211135    -0.070451    -0.239071
 C     4.618354     0.124993    -0.234602
 C     5.487289    -0.899774    -0.536153
 C     4.990924    -2.181755    -0.852799
 C     3.633890    -2.413692    -0.860372
 C     2.705553    -1.381630    -0.560774
 C     1.289402    -1.604319    -0.535577
 C    -1.351126    -0.982704     1.363090
 C    -0.329127    -1.466713     2.203800
 C    -0.601991    -2.193609     3.362121
 C    -1.917100    -2.474705     3.728922
 C    -2.946978    -2.020074     2.909255
 C    -2.666805    -1.299194     1.746451
 C    -2.111407    -0.583109    -0.995200
 C    -1.917304    -1.549784    -1.991999
 C    -2.936734    -1.897852    -2.879825
 C    -4.187863    -1.287701    -2.796612
 C    -4.402873    -0.324118    -1.811158
 C    -3.379743     0.018188    -0.925257
 C    -0.799677     2.262353     1.395152
 C    -2.316659     2.228067     1.702942
 C    -0.397175     3.764533     1.374126
 C    -0.068850     1.708803     2.647233
 C    -0.651117     2.235695    -1.354577
 C    -0.551138     1.350273    -2.630947
 C    -1.989016     3.002990    -1.490400
 C     0.502560     3.260525    -1.564181
 H     5.006668     1.107269     0.005041
 H     6.558214    -0.717437    -0.531101
 H     5.678589    -2.987839    -1.092406
 H     3.254262    -3.399068    -1.102557
 H     0.708302    -1.265653     1.970139
 H     0.225351    -2.542289     3.974598
 H    -2.132965    -3.044763     4.628400
 H    -3.982652    -2.234966     3.159631
 H    -3.503160    -1.006368     1.127503
 H    -0.953011    -2.024931    -2.101603
 H    -2.743691    -2.647711    -3.642626
 H    -4.981474    -1.556150    -3.488514
 H    -5.368428     0.168105    -1.727418
 H    -3.577109     0.768646    -0.169480
 H    -2.679315     1.213489     1.871822
 H    -2.917873     2.691532     0.917608
 H    -2.503639     2.790549     2.625721
 H    -0.877071     4.349256     0.589973
 H    -0.712130     4.201633     2.328939
 H     0.683384     3.902050     1.303246
 H    -0.245267     2.393251     3.485390
 H     1.013136     1.653004     2.499726
 H    -0.426776     0.730382     2.954974
 H     0.274634     0.634963    -2.592655
 H    -1.467186     0.809250    -2.853580
 H    -0.358006     2.013554    -3.482048
 H    -2.854934     2.344747    -1.423686
 H    -2.016879     3.463121    -2.485798
 H    -2.110406     3.810178    -0.766936
 H     0.252203     3.875311    -2.436684
 H     0.680545     3.936052    -0.734034
 H     1.443106     2.753461    -1.792908
