   66
scf done: -2158.973659
Cl    -1.985186     3.086603    -0.794119
Cl    -1.985171    -3.086619     0.794052
 C    -0.732640    -0.682226     0.204815
 C     0.794345    -0.738428     0.420985
 C     0.794351     0.738425    -0.420974
 C    -0.732639     0.682229    -0.204816
 C    -1.908861     1.375757    -0.358048
 C    -3.162770     0.700236    -0.165599
 C    -4.412967     1.358874    -0.313973
 C    -5.604460     0.686914    -0.157354
 C    -5.604462    -0.686900     0.157394
 C    -4.412969    -1.358866     0.313999
 C    -3.162770    -0.700236     0.165605
 C    -1.908859    -1.375763     0.358035
 C     1.602634    -1.889227    -0.188547
 C     0.987853    -2.998504    -0.788785
 C     1.729433    -4.065713    -1.301693
 C     3.120992    -4.056054    -1.234579
 C     3.757552    -2.954975    -0.660838
 C     3.009725    -1.892476    -0.152318
 C     1.044342    -0.685150     2.044760
 C     0.125057     0.329964     2.766427
 C     0.712227    -2.075278     2.641463
 C     2.494059    -0.383183     2.499665
 C     1.602638     1.889226     0.188558
 C     0.987859     2.998537     0.788735
 C     1.729444     4.065750     1.301628
 C     3.121005     4.056056     1.234570
 C     3.757563     2.954936     0.660905
 C     3.009732     1.892436     0.152394
 C     1.044378     0.685152    -2.044749
 C     0.125085    -0.329933    -2.766449
 C     0.712311     2.075298    -2.641439
 C     2.494093     0.383150    -2.499628
 H    -4.420862     2.412863    -0.560698
 H    -6.543850     1.218809    -0.278630
 H    -6.543853    -1.218788     0.278688
 H    -4.420868    -2.412854     0.560728
 H    -0.089214    -3.038637    -0.865866
 H     1.208233    -4.904803    -1.755123
 H     3.700731    -4.886050    -1.629033
 H     4.842713    -2.913532    -0.613009
 H     3.541348    -1.044750     0.258566
 H    -0.935594     0.149074     2.575167
 H     0.279966     0.223880     3.846554
 H     0.353942     1.364474     2.508491
 H     1.276132    -2.880371     2.162378
 H     0.980945    -2.069729     3.704620
 H    -0.348727    -2.315049     2.577401
 H     2.903913     0.536044     2.084081
 H     2.483506    -0.267183     3.589952
 H     3.174749    -1.209340     2.283198
 H    -0.089209     3.038695     0.865779
 H     1.208247     4.904869     1.755009
 H     3.700745     4.886058     1.629009
 H     4.842726     2.913461     0.613131
 H     3.541348     1.044676    -0.258429
 H     0.353976    -1.364450    -2.508556
 H    -0.935566    -0.149060    -2.575175
 H     0.279982    -0.223806    -3.846574
 H    -0.348642     2.315086    -2.577413
 H     1.276212     2.880374    -2.162321
 H     0.981070     2.069761    -3.704587
 H     2.483561     0.267207    -3.589922
 H     3.174814     1.209269    -2.283106
 H     2.903897    -0.536114    -2.084078
