   66
scf done: -1140.760548
 N     1.416272    -0.238967     0.814911
 C     2.693543    -0.728089     0.336913
 C     0.880990     1.007779     0.488108
 C     2.756305    -1.585859    -0.776717
 C     4.012312    -2.049086    -1.195976
 H     4.057485    -2.705995    -2.062669
 C     3.868803    -0.414925     1.060833
 C     5.091027    -0.916188     0.611629
 H     5.991938    -0.672559     1.171046
 C     5.190596    -1.719177    -0.530618
 C     1.536825    -2.072730    -1.523796
 H     0.615803    -1.836489    -0.991506
 H     1.590716    -3.158582    -1.665112
 H     1.477145    -1.622465    -2.522802
 B     0.632839     1.392968    -1.188561
 H     1.069350     0.653456    -2.001353
 B     0.851693     2.360991     1.485211
 H     1.393848     2.245070     2.532889
 C     6.533339    -2.210454    -1.018076
 H     7.176951    -2.513485    -0.184458
 H     7.066387    -1.423155    -1.567380
 H     6.426571    -3.065925    -1.692857
 C     3.835816     0.423402     2.317796
 H     3.557143     1.460865     2.109834
 H     4.819608     0.430473     2.796006
 H     3.116976     0.042181     3.054231
 B     1.706375     2.334332    -0.077989
 H     2.880457     2.222047    -0.189529
 B     0.693794     3.175772    -1.263257
 H     1.201233     3.743456    -2.175209
 B     0.771953     3.774633     0.422077
 H     1.336364     4.775723     0.724235
 H     1.207052    -0.503889     1.771020
 N    -1.416257    -0.238980    -0.814866
 C    -2.693541    -0.728079    -0.336877
 C    -0.880970     1.007772    -0.488078
 C    -2.756342    -1.585865     0.776743
 C    -4.012365    -2.049081     1.195963
 H    -4.057569    -2.706005     2.062642
 C    -3.868776    -0.414896    -1.060823
 C    -5.091020    -0.916148    -0.611656
 H    -5.991911    -0.672508    -1.171098
 C    -5.190629    -1.719146     0.530579
 C    -1.536890    -2.072759     1.523852
 H    -0.615863    -1.836696     0.991492
 H    -1.590899    -3.158582     1.665338
 H    -1.477119    -1.622346     2.522785
 B    -0.632818     1.392996     1.188578
 H    -1.069337     0.653512     2.001390
 B    -0.851671     2.360957    -1.485214
 H    -1.393832     2.245011    -2.532887
 C    -6.533389    -2.210409     1.018005
 H    -7.177087    -2.513169     0.184356
 H    -7.066319    -1.423191     1.567541
 H    -6.426662    -3.066056     1.692571
 C    -3.835738     0.423417    -2.317795
 H    -3.557019     1.460868    -2.109841
 H    -4.819524     0.430526    -2.796017
 H    -3.116907     0.042153    -3.054218
 B    -1.706352     2.334340     0.077987
 H    -2.880434     2.222061     0.189534
 B    -0.693768     3.175806     1.263234
 H    -1.201205     3.743513     2.175173
 B    -0.771926     3.774626    -0.422114
 H    -1.336333     4.775711    -0.724294
 H    -1.207071    -0.503880    -1.770990
