   62
scf done: -6533.964464
Br     1.768861     3.323664    -0.378766
Br     1.768980    -3.323492     0.379145
 C    -0.866297     0.843487    -0.194610
 C    -0.866273    -0.843496     0.194537
 C     0.653620    -0.692969     0.126149
 C     1.816114    -1.413302     0.185888
 C     3.067844    -0.720058     0.081921
 C     4.318893    -1.388554     0.151515
 C     5.509125    -0.701217     0.075550
 C     5.509091     0.701557    -0.075209
 C     4.318822     1.388829    -0.151199
 C     3.067813     0.720275    -0.081607
 C     1.816059     1.413463    -0.185585
 C     0.653598     0.693079    -0.125865
 C    -1.433489     1.111730    -1.585304
 C    -2.774689     0.800160    -1.869900
 C    -3.324765     1.046749    -3.125939
 C    -2.541899     1.606844    -4.138177
 C    -1.207506     1.910868    -3.876335
 C    -0.660617     1.664134    -2.613936
 C    -1.406778     1.805181     0.875429
 C    -0.769333     1.884586     2.127314
 C    -1.218726     2.753159     3.118589
 C    -2.319362     3.579773     2.885082
 C    -2.953800     3.527241     1.645741
 C    -2.500724     2.655138     0.652725
 C    -1.406424    -1.805244    -0.875611
 C    -0.768693    -1.884621    -2.127346
 C    -1.217808    -2.753247    -3.118700
 C    -2.318425    -3.579949    -2.885415
 C    -2.953127    -3.527455    -1.646207
 C    -2.500341    -2.655292    -0.653112
 C    -1.433716    -1.111818     1.585105
 C    -0.660956    -1.664228     2.613824
 C    -1.208010    -1.911070     3.876129
 C    -2.542462    -1.607135     4.137784
 C    -3.325218    -1.047040     3.125458
 C    -2.774977    -0.800361     1.869509
 H     4.322910    -2.465474     0.271440
 H     6.449467    -1.241999     0.133603
 H     6.449403     1.242388    -0.133218
 H     4.322791     2.465744    -0.271181
 H    -3.394453     0.343877    -1.104402
 H    -4.363793     0.791058    -3.315968
 H    -2.967608     1.796893    -5.119762
 H    -0.581943     2.342319    -4.653383
 H     0.380261     1.906613    -2.437600
 H     0.089406     1.255884     2.335051
 H    -0.703018     2.784935     4.074655
 H    -2.670159     4.260715     3.656002
 H    -3.802281     4.174160     1.437726
 H    -3.001357     2.657015    -0.307455
 H     0.090057    -1.255875    -2.334905
 H    -0.701904    -2.784980    -4.074663
 H    -2.669002    -4.260919    -3.656405
 H    -3.801584    -4.174457    -1.438357
 H    -3.001183    -2.657167     0.306960
 H     0.379972    -1.906602     2.437616
 H    -0.582541    -2.342549     4.653236
 H    -2.968303    -1.797253     5.119300
 H    -4.364287    -0.791421     3.315345
 H    -3.394664    -0.344093     1.103938
