   62
scf done: -1981.802182
 I     3.560710     1.566611    -0.225048
 I    -3.561384     1.564870     0.225950
 C     0.849589    -1.042577    -0.165434
 C    -0.849105    -1.043067     0.165097
 C    -0.699075     0.477838     0.097707
 C    -1.425496     1.638150     0.125030
 C    -0.725476     2.890402     0.051072
 C    -1.391973     4.144216     0.092651
 C    -0.704552     5.336102     0.046561
 C     0.702130     5.336443    -0.044723
 C     1.390106     4.144892    -0.091021
 C     0.724205     2.890756    -0.049614
 C     1.424805     1.638864    -0.123957
 C     0.698930     0.478207    -0.096939
 C     1.157269    -1.606928    -1.549236
 C     1.701122    -0.824099    -2.575167
 C     1.977229    -1.369007    -3.832646
 C     1.709479    -2.711369    -4.093095
 C     1.154156    -3.503517    -3.085403
 C     0.879077    -2.955442    -1.834400
 C     1.775877    -1.587791     0.933432
 C     1.800632    -0.965622     2.195812
 C     2.641229    -1.413270     3.211941
 C     3.495366    -2.496242     2.993819
 C     3.496842    -3.115470     1.745675
 C     2.651246    -2.665123     0.728317
 C    -1.775221    -1.587733    -0.934177
 C    -1.800511    -0.964256    -2.195904
 C    -2.641057    -1.411285    -3.212338
 C    -3.494619    -2.494916    -2.995218
 C    -3.495585    -3.115406    -1.747733
 C    -2.650038    -2.665682    -0.730023
 C    -1.156467    -1.608596     1.548507
 C    -0.877432    -2.957122     1.832765
 C    -1.152171    -3.506198     3.083399
 C    -1.707985    -2.715078     4.091630
 C    -1.976598    -1.372719     3.832085
 C    -1.700811    -0.826799     2.574971
 H    -2.473285     4.151220     0.168407
 H    -1.249408     6.275127     0.082429
 H     1.246548     6.275726    -0.080476
 H     2.471410     4.152418    -0.166838
 H     1.908876     0.225337    -2.403100
 H     2.400674    -0.734832    -4.607042
 H     1.922276    -3.135766    -5.070512
 H     0.924579    -4.548646    -3.275235
 H     0.428010    -3.583580    -1.072493
 H     1.151338    -0.119854     2.392354
 H     2.629080    -0.910335     4.175172
 H     4.154807    -2.845479     3.783820
 H     4.164663    -3.950543     1.550098
 H     2.695662    -3.154132    -0.236686
 H    -1.151669    -0.117959    -2.391652
 H    -2.629338    -0.907372    -4.175064
 H    -4.154042    -2.843628    -3.785467
 H    -4.162952    -3.951014    -1.552904
 H    -2.694071    -3.155719     0.234475
 H    -0.426021    -3.584484     1.070422
 H    -0.921934    -4.551310     3.272520
 H    -1.920509    -3.140281     5.068756
 H    -2.400460    -0.739329     4.606895
 H    -1.909204     0.222628     2.403618
