   54
scf done: -1307.561815
 C    -0.000310     0.655286     0.862280
 C    -0.000080     0.656025    -0.861840
 C     0.000889    -1.907298     0.675741
 C     0.000998    -1.906702    -0.677859
 C    -1.227565    -0.019850     1.465192
 C    -2.299644     0.632582     2.067554
 H    -2.317571     1.717707     2.116693
 C    -3.356788    -0.113178     2.605286
 H    -4.188841     0.400230     3.079863
 C    -3.346971    -1.505162     2.533364
 H    -4.170433    -2.077652     2.951902
 C    -2.278520    -2.171463     1.919185
 H    -2.270483    -3.255839     1.851012
 C    -1.227298    -1.433980     1.389159
 C     1.227522    -0.018748     1.465331
 C     2.298885     0.634701     2.067866
 H     2.315755     1.719848     2.117000
 C     3.356643    -0.110058     2.605759
 H     4.188097     0.404114     3.080559
 C     3.348184    -1.502057     2.533773
 H     4.172145    -2.073754     2.952415
 C     2.280486    -2.169361     1.919388
 H     2.273495    -3.253740     1.851162
 C     1.228609    -1.432865     1.389276
 C    -1.227385    -0.018447    -1.465426
 C    -2.299568     0.634645    -2.066899
 H    -2.317440     1.719826    -2.114955
 C    -3.356784    -0.110529    -2.605283
 H    -4.188909     0.403372    -3.079193
 C    -3.347013    -1.502586    -2.534794
 H    -4.170496    -2.074598    -2.953946
 C    -2.278555    -2.169556    -1.921391
 H    -2.270580    -3.253995    -1.854257
 C    -1.227166    -1.432661    -1.390856
 C     1.227798    -0.017435    -1.465280
 C     2.299423     0.636630    -2.066731
 H     2.316295     1.721831    -2.114778
 C     3.357340    -0.107587    -2.605016
 H     4.189048     0.407036    -3.078877
 C     3.348814    -1.499667    -2.534481
 H     4.172891    -2.070933    -2.953485
 C     2.280886    -2.167587    -1.921213
 H     2.273832    -3.252033    -1.854143
 C     1.228807    -1.431634    -1.390715
 C    -0.000952     2.163420     0.697037
 C    -0.002092     3.340880     1.436440
 H    -0.002297     3.353605     2.523156
 C    -0.002885     4.538107     0.702628
 H    -0.003720     5.488030     1.230949
 C    -0.002670     4.538710    -0.698995
 H    -0.003356     5.489060    -1.226553
 C    -0.001619     3.342098    -1.433789
 H    -0.001481     3.355793    -2.520500
 C    -0.000743     2.164007    -0.695361
