   23
scf done:  -739.915366
 C     7.882181     5.702638     9.890801
 C     8.070971     6.986823    10.376966
 C     7.049207     7.927553    10.236430
 C     5.857218     7.553188     9.607927
 C     5.717189     6.259276     9.139564
 N     6.721109     5.358228     9.284988
 C     6.529262     3.983414     8.768938
 C     7.562892     2.836940     8.849636
 C     5.422321     2.991590     9.216236
 C     6.246141     3.598872     7.292100
 C     6.291712     2.286799     8.131765
 I     6.025595     0.307365     7.393158
 H     8.631456     4.924979     9.966137
 H     9.009954     7.236824    10.857893
 H     7.177846     8.938248    10.610518
 H     5.040218     8.254272     9.479415
 H     4.823019     5.901817     8.643935
 H     7.771372     2.421221     9.838653
 H     8.459484     2.928468     8.231421
 H     4.394458     3.227698     8.930060
 H     5.495375     2.598793    10.232764
 H     7.059555     3.751838     6.579416
 H     5.271265     3.874057     6.882178
