   54
scf done:  -983.496380
 B    -1.188434     1.990499     0.000000
 B    -0.778963     2.968172     1.461895
 B     0.995773     3.084833     1.458433
 B     1.514118     2.167744     0.000000
 B    -1.386499     3.760295     0.000000
 B     0.017732     4.451315     0.880838
 B     1.495713     3.952544     0.000000
 C     0.190671     1.693010     0.986510
 N     0.320327     0.448604     1.589731
 C    -0.730135    -0.070185     2.478145
 H    -1.655865    -0.137849     1.895220
 H    -0.928661     0.618595     3.311561
 C    -0.350252    -1.429490     3.027836
 C    -0.489149    -1.698995     4.394360
 H    -0.848739    -0.918153     5.060594
 C    -0.171557    -2.957768     4.908989
 H    -0.285844    -3.150316     5.972306
 C     0.300170    -3.960823     4.061279
 H     0.552440    -4.939541     4.460233
 C     0.450184    -3.698803     2.697032
 H     0.818303    -4.474979     2.031236
 C     0.125440    -2.443037     2.184567
 H     0.244491    -2.236184     1.125060
 H    -2.063110     1.192368     0.000000
 H     2.500451     4.586295     0.000000
 H    -1.420491     2.816915     2.447577
 H     2.465958     1.458191     0.000000
 H    -2.460971     4.266619     0.000000
 H     1.646201     2.991234     2.447281
 H    -0.051371     5.450966     1.519042
 H     1.253899     0.284594     1.951063
 B    -0.778963     2.968172    -1.461895
 B     0.995773     3.084833    -1.458433
 B     0.017732     4.451315    -0.880838
 C     0.190671     1.693010    -0.986510
 N     0.320327     0.448604    -1.589731
 C    -0.730135    -0.070185    -2.478145
 H    -1.655865    -0.137849    -1.895220
 H    -0.928661     0.618595    -3.311561
 C    -0.350252    -1.429490    -3.027836
 C    -0.489149    -1.698995    -4.394360
 H    -0.848739    -0.918153    -5.060594
 C    -0.171557    -2.957768    -4.908989
 H    -0.285844    -3.150316    -5.972306
 C     0.300170    -3.960823    -4.061279
 H     0.552440    -4.939541    -4.460233
 C     0.450184    -3.698803    -2.697032
 H     0.818303    -4.474979    -2.031236
 C     0.125440    -2.443037    -2.184567
 H     0.244491    -2.236184    -1.125060
 H    -1.420491     2.816915    -2.447577
 H     1.646201     2.991234    -2.447281
 H    -0.051371     5.450966    -1.519042
 H     1.253899     0.284594    -1.951063
