   68
scf done: -1612.337279
 C     1.530378    -0.000007     1.124016
 C     2.393353    -0.000027     2.225856
 C     3.828211    -0.000089     2.065733
 C     4.396586    -0.000050     0.789480
 C     3.495805     0.000061    -0.290730
 C     4.132085    -0.000060    -1.546068
 C     3.301464    -0.000149    -2.669645
 C     1.865298    -0.000129    -2.514848
 C     1.291550    -0.000038    -1.249334
 C     2.137065     0.000033    -0.137716
 C     5.739475    -0.000217     0.153428
 C     5.582669    -0.000232    -1.222403
 C    -0.006586     0.000021     0.962958
 C    -0.623191     1.261788     1.608493
 C     0.187932     2.200769     2.272038
 C    -0.320264     3.392329     2.797121
 C    -1.680187     3.697105     2.645020
 C    -2.500939     2.782318     1.987573
 C    -2.004367     1.556186     1.490990
 C    -2.988452     0.675363     0.872234
 C    -2.988542    -0.674982     0.872330
 C    -2.004538    -1.555883     1.491098
 C    -2.501228    -2.781978     1.987670
 C    -1.680566    -3.696866     2.645067
 C    -0.320597    -3.392234     2.797152
 C     0.187715    -2.200737     2.272069
 C    -0.623324    -1.261640     1.608554
 C    -0.178566    -0.000038    -0.784322
 C    -0.738450     1.358525    -1.264012
 C     0.091315     2.457278    -0.949141
 C    -0.218045     3.773832    -1.281937
 C    -1.406497     4.046364    -1.973410
 C    -2.234885     2.981211    -2.311312
 C    -1.928725     1.633628    -1.978353
 C    -2.920490     0.675078    -2.449420
 C    -2.920563    -0.675148    -2.449333
 C    -1.928843    -1.633713    -1.978206
 C    -2.235080    -2.981307    -2.310998
 C    -1.406696    -4.046464    -1.973052
 C    -0.218154    -3.773909    -1.281765
 C     0.091290    -2.457322    -0.949133
 C    -0.738498    -1.358580    -1.263988
 H     1.998289    -0.000018     3.241365
 H     4.445626    -0.000154     2.965710
 H     3.713403    -0.000240    -3.680367
 H     1.244808    -0.000223    -3.411214
 H     6.689901    -0.000299     0.680838
 H     1.254581     2.023982     2.360424
 H     0.349969     4.088609     3.304034
 H    -2.090090     4.631814     3.030048
 H    -3.562490     3.000756     1.860424
 H    -3.861899     1.176449     0.449427
 H    -3.862064    -1.176002     0.449595
 H    -3.562803    -3.000297     1.860528
 H    -2.090542    -4.631555     3.030073
 H     0.349553    -4.088600     3.304055
 H     1.254382    -2.024052     2.360424
 H     1.023669     2.280409    -0.424265
 H     0.464965     4.577776    -1.004444
 H    -1.675809     5.067129    -2.248107
 H    -3.157295     3.175830    -2.861066
 H    -3.794144     1.145311    -2.910416
 H    -3.794270    -1.145353    -2.910255
 H    -3.157526    -3.175958    -2.860677
 H    -1.676110    -5.067245    -2.247592
 H     0.464858    -4.577850    -1.004274
 H     1.023733    -2.280428    -0.424402
 H     6.391799    -0.000342    -1.948388
