   70
scf done: -1613.562498
 H    -6.089131    -0.885664    -1.720601
 C    -4.335860     0.000164     0.848946
 C    -3.475306     0.000310    -0.257251
 C    -4.094072     0.000417    -1.517555
 C    -3.273383     0.000349    -2.640932
 C    -5.771163    -0.000036     0.309450
 C    -5.609219     0.000620    -1.277604
 H    -3.694171     0.000394    -3.648092
 H    -6.329157    -0.887076     0.646904
 H    -6.329881     0.886262     0.647630
 H    -6.088544     0.887699    -1.719674
 H    -0.426625    -4.578401    -0.989993
 C    -1.477077     0.000050     1.138216
 C    -2.316447    -0.000039     2.252068
 C    -3.752985    -0.000003     2.112608
 C    -1.837046     0.000240    -2.493042
 C    -1.263169     0.000206    -1.231883
 C    -2.098678     0.000215    -0.116107
 C     0.058630    -0.000003     0.962650
 C     0.682798     1.261145     1.603826
 C    -0.121311     2.200394     2.275654
 C     0.392212     3.390887     2.797994
 C     1.751018     3.695046     2.634868
 C     2.565119     2.780507     1.968908
 C     2.063159     1.555374     1.475203
 C     3.041458     0.675077     0.846496
 C     3.041434    -0.675150     0.846464
 C     2.063092    -1.555469     1.475096
 C     2.565004    -2.780670     1.968684
 C     1.750823    -3.695343     2.634349
 C     0.391965    -3.391267     2.797277
 C    -0.121493    -2.200689     2.275089
 C     0.682721    -1.261252     1.603625
 C     0.212947     0.000062    -0.782345
 C     0.770569     1.357852    -1.267077
 C    -0.054892     2.457373    -0.943801
 C     0.253382     3.774152    -1.276022
 C     0.252444    -3.773986    -1.275932
 C    -0.055547    -2.457114    -0.943854
 C     0.770264    -1.357829    -1.267061
 H    -1.903635    -0.000120     3.260829
 H    -4.361357    -0.000092     3.018838
 H    -1.187365     2.024084     2.371223
 H    -0.273126     4.086980     3.311726
 H     2.164995     4.629000     3.017500
 H     3.625668     2.998337     1.832399
 H     3.910573     1.176403     0.415075
 H     3.910542    -1.176478     0.415019
 H     3.625580    -2.998445     1.832301
 H     2.164758    -4.629344     3.016914
 H    -0.273440    -4.087528     3.310692
 H    -1.187569    -2.024439     2.370480
 H    -0.982913     2.278636    -0.412111
 H    -0.425427     4.578744    -0.989965
 H    -0.983602    -2.278069    -0.412319
 H     1.702685    -5.068178    -2.252989
 C     1.435639     4.046872    -1.978378
 C     2.258981     2.981284    -2.326310
 C     1.954334     1.633445    -1.992011
 C     2.940739     0.674831    -2.474005
 C     2.940696    -0.675379    -2.473810
 C     1.954054    -1.633768    -1.991806
 C     2.258442    -2.981704    -2.325947
 C     1.434769    -4.047052    -1.978065
 H    -1.217880     0.000162    -3.390742
 H     1.703794     5.067895    -2.253451
 H     3.176121     3.175425    -2.885049
 H     3.809622     1.144888    -2.944236
 H     3.809577    -1.145659    -2.943824
 H     3.175625    -3.176128    -2.884514
