  212
scf done: -3345.450402
 C     0.822253     0.007603     0.010073
 C    -0.822253    -0.007603    -0.010073
 C     1.447077     0.348940    -1.393740
 C    -1.447077    -0.348940     1.393740
 C    -1.439532     1.377572    -0.431260
 C     1.439532    -1.377572     0.431260
 C     1.401972     1.065754     1.017821
 C    -1.401972    -1.065754    -1.017821
 C     1.000301     1.125877     2.365184
 C    -1.000301    -1.125877    -2.365184
 C    -1.040508    -1.462455     2.161305
 C     1.040508     1.462455    -2.161305
 C     1.054599    -2.595745    -0.159846
 C    -1.054599     2.595745     0.159846
 C     2.485443     1.868112     0.635345
 C    -2.485443    -1.868112    -0.635345
 C    -2.557337     0.371686     1.844703
 C     2.557337    -0.371686    -1.844703
 C     2.540479    -1.404879     1.299181
 C    -2.540479     1.404879    -1.299181
 C     1.626630     1.971650     3.291772
 C    -1.626630    -1.971650    -3.291772
 C    -1.699481    -1.821514     3.343274
 C     1.699481     1.821514    -3.343274
 C     1.713567    -3.800366     0.128624
 C    -1.713567     3.800366    -0.128624
 C     3.151725     2.712728     1.535401
 C    -3.151725    -2.712728    -1.535401
 C    -3.264946     0.021758     3.007558
 C     3.264946    -0.021758    -3.007558
 C     3.242529    -2.583609     1.589356
 C    -3.242529     2.583609    -1.589356
 C     2.704626     2.767535     2.863560
 C    -2.704626    -2.767535    -2.863560
 C    -2.825104    -1.077148     3.750284
 C     2.825104     1.077148    -3.750284
 C     2.814367    -3.781487     1.002457
 C    -2.814367     3.781487    -1.002457
 H     0.190765     0.498711     2.709063
 H    -0.190765    -0.498711    -2.709063
 H    -0.200523    -2.055342     1.834197
 H     0.200523     2.055342    -1.834197
 H     0.227950    -2.613455    -0.856102
 H    -0.227950     2.613455     0.856102
 H     2.839424     1.820994    -0.386343
 H    -2.839424    -1.820994     0.386343
 H    -2.901635     1.221657     1.271103
 H     2.901635    -1.221657    -1.271103
 H     2.877927    -0.479987     1.748027
 H    -2.877927     0.479987    -1.748027
 C     1.145084     1.955984     4.757290
 C    -1.145084    -1.955984    -4.757290
 C    -1.256702    -3.039316     4.177935
 C     1.256702     3.039316    -4.177935
 C     1.212363    -5.102628    -0.525334
 C    -1.212363     5.102628     0.525334
 C     4.378734     3.495440     1.032835
 C    -4.378734    -3.495440    -1.032835
 C    -4.505035     0.850241     3.385669
 C     4.505035    -0.850241    -3.385669
 C     4.470549    -2.501086     2.513287
 C    -4.470549     2.501086    -2.513287
 H     3.204548     3.419451     3.571677
 H    -3.204548    -3.419451    -3.571677
 H    -3.356545    -1.363304     4.653354
 H     3.356545     1.363304    -4.653354
 H     3.339950    -4.704115     1.222179
 H    -3.339950     4.704115    -1.222179
 C     5.160726    -0.364159    -4.699944
 C    -5.160726     0.364159     4.699944
 C    -5.095993     3.888915    -2.789962
 C     5.095993    -3.888915     2.789962
 C     4.997089     4.393740     2.130473
 C    -4.997089    -4.393740    -2.130473
 C     5.555655    -0.738239    -2.244282
 C    -5.555655     0.738239     2.244282
 C    -5.549945     1.602648    -1.845332
 C     5.549945    -1.602648     1.845332
 C     5.461704     2.481461     0.563564
 C    -5.461704    -2.481461    -0.563564
 C     4.112904    -2.344424    -3.559905
 C    -4.112904     2.344424     3.559905
 C    -4.068442     1.866602    -3.872894
 C     4.068442    -1.866602     3.872894
 C     3.989060     4.397105    -0.171317
 C    -3.989060    -4.397105     0.171317
 C     1.186654     2.677080    -5.688048
 C    -1.186654    -2.677080     5.688048
 C    -2.065133     6.332423     0.129241
 C     2.065133    -6.332423    -0.129241
 C     1.918703     2.960810     5.645420
 C    -1.918703    -2.960810    -5.645420
 C    -0.135937     3.558363    -3.750520
 C     0.135937    -3.558363     3.750520
 C     0.255210     5.369615     0.090487
 C    -0.255210    -5.369615    -0.090487
 C    -0.365464     2.308033     4.835604
 C     0.365464    -2.308033    -4.835604
 C     2.290730     4.185928    -3.992256
 C    -2.290730    -4.185928     3.992256
 C    -1.255813     4.962936     2.071038
 C     1.255813    -4.962936    -2.071038
 C     1.351915     0.532372     5.346560
 C    -1.351915    -0.532372    -5.346560
 H     0.850971     3.554806    -6.264847
 H    -0.850971    -3.554806     6.264847
 H    -1.663811     7.231150     0.625141
 H     1.663811    -7.231150    -0.625141
 H     1.530635     2.913137     6.675935
 H    -1.530635    -2.913137    -6.675935
 H     2.165379     2.372706    -6.087106
 H    -2.165379    -2.372706     6.087106
 H    -3.114479     6.217437     0.444604
 H     3.114479    -6.217437    -0.444604
 H     2.994271     2.726184     5.683746
 H    -2.994271    -2.726184    -5.683746
 H     0.474610     1.856705    -5.859177
 H    -0.474610    -1.856705     5.859177
 H    -2.038885     6.511631    -0.957282
 H     2.038885    -6.511631     0.957282
 H     1.793635     3.995514     5.288291
 H    -1.793635    -3.995514    -5.288291
 H     2.004840     5.061956    -4.599330
 H    -2.004840    -5.061956     4.599330
 H    -0.914028     5.897842     2.546917
 H     0.914028    -5.897842    -2.546917
 H     1.013210     0.503355     6.396002
 H    -1.013210    -0.503355    -6.396002
 H     2.337113     4.494137    -2.937179
 H    -2.337113    -4.494137     2.937179
 H    -0.606590     4.147765     2.413815
 H     0.606590    -4.147765    -2.413815
 H     0.780811    -0.214631     4.779223
 H    -0.780811     0.214631    -4.779223
 H     3.297968     3.866059    -4.302062
 H    -3.297968    -3.866059     4.302062
 H    -2.281470     4.755431     2.413066
 H     2.281470    -4.755431    -2.413066
 H     2.414903     0.250217     5.319923
 H    -2.414903    -0.250217    -5.319923
 H    -0.441437     4.376112    -4.424388
 H     0.441437    -4.376112     4.424388
 H     0.619969     6.304330     0.549805
 H    -0.619969    -6.304330    -0.549805
 H    -0.703837     2.262561     5.884902
 H     0.703837    -2.262561    -5.884902
 H    -0.893260     2.763744    -3.807838
 H     0.893260    -2.763744     3.807838
 H     0.324618     5.474893    -1.003332
 H    -0.324618    -5.474893     1.003332
 H    -0.546215     3.327090     4.463904
 H     0.546215    -3.327090    -4.463904
 H    -0.130757     3.955397    -2.726818
 H     0.130757    -3.955397     2.726818
 H     0.917932     4.552436     0.401859
 H    -0.917932    -4.552436    -0.401859
 H    -0.978221     1.611635     4.248926
 H     0.978221    -1.611635    -4.248926
 H     6.035364    -0.993936    -4.930184
 H    -6.035364     0.993936     4.930184
 H    -5.959019     3.775697    -3.466059
 H     5.959019    -3.775697     3.466059
 H     5.863993     4.935044     1.718008
 H    -5.863993    -4.935044    -1.718008
 H     4.462467    -0.436658    -5.548991
 H    -4.462467     0.436658     5.548991
 H    -4.374846     4.565573    -3.275321
 H     4.374846    -4.565573     3.275321
 H     4.275277     5.142942     2.493021
 H    -4.275277    -5.142942    -2.493021
 H     5.511559     0.676878    -4.617728
 H    -5.511559    -0.676878     4.617728
 H    -5.458345     4.362891    -1.863967
 H     5.458345    -4.362891     1.863967
 H     5.351525     3.800266     2.988159
 H    -5.351525    -3.800266    -2.988159
 H     6.461385    -1.313134    -2.502135
 H    -6.461385     1.313134     2.502135
 H    -6.445511     1.540347    -2.486993
 H     6.445511    -1.540347     2.486993
 H     6.362080     3.017314     0.217744
 H    -6.362080    -3.017314    -0.217744
 H     5.846697     0.312607    -2.088018
 H    -5.846697    -0.312607     2.088018
 H    -5.852004     2.018772    -0.871488
 H     5.852004    -2.018772     0.871488
 H     5.752465     1.814528     1.390488
 H    -5.752465    -1.814528    -1.390488
 H     5.157886    -1.127620    -1.296817
 H    -5.157886     1.127620     1.296817
 H    -5.171464     0.583845    -1.680890
 H     5.171464    -0.583845     1.680890
 H     5.091572     1.859424    -0.263639
 H    -5.091572    -1.859424     0.263639
 H     5.003795    -2.937824    -3.827991
 H    -5.003795     2.937824     3.827991
 H    -4.944475     1.821578    -4.542400
 H     4.944475    -1.821578     4.542400
 H     4.875332     4.948735    -0.528880
 H    -4.875332    -4.948735     0.528880
 H     3.689723    -2.759870    -2.634699
 H    -3.689723     2.759870     2.634699
 H    -3.686215     0.845874    -3.739147
 H     3.686215    -0.845874     3.739147
 H     3.596486     3.804307    -1.009107
 H    -3.596486    -3.804307     1.009107
 H     3.366201    -2.458577    -4.360335
 H    -3.366201     2.458577     4.360335
 H    -3.285518     2.465264    -4.363413
 H     3.285518    -2.465264     4.363413
 H     3.222782     5.129590     0.123650
 H    -3.222782    -5.129590    -0.123650
