   66
scf done: -2155.796246
Cl    -2.003433     3.174122    -0.731491
Cl    -2.003002    -3.174436     0.731820
 C    -0.737063    -0.692515     0.191267
 C     0.795211    -0.730794     0.419881
 C     0.794945     0.730981    -0.420157
 C    -0.737232     0.692337    -0.191261
 C    -1.914360     1.376270    -0.318262
 C    -3.171852     0.705546    -0.145177
 C    -4.420122     1.374248    -0.274089
 C    -5.617895     0.694567    -0.136897
 C    -5.617756    -0.695614     0.136834
 C    -4.419854    -1.375053     0.274085
 C    -3.171710    -0.706109     0.145219
 C    -1.914098    -1.376598     0.318328
 C     1.631044    -1.864621    -0.158305
 C     1.047026    -2.988850    -0.760473
 C     1.827644    -4.040663    -1.263419
 C     3.224997    -3.989056    -1.175604
 C     3.826807    -2.867690    -0.585193
 C     3.037191    -1.824563    -0.088599
 C     0.995480    -0.645647     2.036707
 C     0.004553     0.344671     2.713376
 C     0.708986    -2.052287     2.634877
 C     2.420921    -0.263030     2.531860
 C     1.630481     1.865070     0.157955
 C     1.046046     2.988483     0.761249
 C     1.826209     4.040398     1.264679
 C     3.223549     3.989744     1.176192
 C     3.825795     2.869246     0.584577
 C     3.036632     1.825990     0.087542
 C     0.994797     0.645671    -2.036954
 C     0.004510    -0.345559    -2.713231
 C     0.706958     2.051951    -2.635341
 C     2.420492     0.264232    -2.532383
 H    -4.423869     2.439279    -0.489206
 H    -6.561421     1.230913    -0.241909
 H    -6.561175    -1.232156     0.241804
 H    -4.423414    -2.440084     0.489205
 H    -0.032391    -3.067915    -0.834937
 H     1.338291    -4.901852    -1.721553
 H     3.835749    -4.805943    -1.562846
 H     4.914205    -2.800431    -0.519781
 H     3.535464    -0.962258     0.338936
 H    -1.044667     0.080818     2.529021
 H     0.169010     0.302393     3.802668
 H     0.175664     1.377094     2.391885
 H     1.374413    -2.814981     2.207406
 H     0.888512    -2.011081     3.722384
 H    -0.328902    -2.364646     2.479932
 H     2.776740     0.681124     2.111401
 H     2.370231    -0.142313     3.626965
 H     3.149149    -1.060808     2.337486
 H    -0.033386     3.066837     0.836210
 H     1.336508     4.900901     1.723728
 H     3.833965     4.806678     1.563865
 H     4.913202     2.802756     0.518584
 H     3.535323     0.964321    -0.340772
 H     0.176618    -1.377845    -2.391793
 H    -1.044857    -0.082588    -2.528514
 H     0.168557    -0.303129    -3.802578
 H    -0.331607     2.362674    -2.481626
 H     1.370743     2.815618    -2.207046
 H     0.887810     2.011064    -3.722639
 H     2.369425     0.142124    -3.627305
 H     3.147754     1.063207    -2.339268
 H     2.777762    -0.678972    -2.111010
