   66
scf done: -1138.143154
 N     1.426871    -0.244454     0.880062
 C     2.692107    -0.748066     0.375347
 C     0.873549     0.996059     0.530971
 C     2.740452    -1.588654    -0.751193
 C     3.995578    -2.036108    -1.204327
 H     4.035502    -2.680350    -2.084615
 C     3.873872    -0.425723     1.082292
 C     5.100412    -0.904550     0.607971
 H     6.012770    -0.654511     1.152558
 C     5.182462    -1.694387    -0.550636
 C     1.501713    -2.073241    -1.481216
 H     0.597213    -1.704634    -0.994630
 H     1.476152    -3.175237    -1.493147
 H     1.509298    -1.734354    -2.529819
 B     0.666872     1.375076    -1.189106
 H     1.132636     0.630195    -1.979690
 B     0.813722     2.370559     1.529400
 H     1.323312     2.256701     2.593401
 C     6.531473    -2.158489    -1.074482
 H     7.169045    -2.534029    -0.259157
 H     7.066530    -1.324007    -1.558438
 H     6.414034    -2.959393    -1.818300
 C     3.832588     0.408822     2.348656
 H     3.486556     1.430603     2.140938
 H     4.834403     0.470605     2.797121
 H     3.150708    -0.021795     3.099260
 B     1.716923     2.322829    -0.023763
 H     2.892767     2.214890    -0.113837
 B     0.733125     3.158952    -1.246115
 H     1.275835     3.730005    -2.135999
 B     0.760170     3.764523     0.442853
 H     1.313568     4.769354     0.753889
 H     1.114950    -0.618183     1.779681
 N    -1.426774    -0.244598    -0.879885
 C    -2.692072    -0.748098    -0.375210
 C    -0.873472     0.995969    -0.530937
 C    -2.740596    -1.588436     0.751513
 C    -3.995796    -2.035758     1.204568
 H    -4.035861    -2.679804     2.084995
 C    -3.873724    -0.425906    -1.082406
 C    -5.100343    -0.904600    -0.608154
 H    -6.012613    -0.654698    -1.152951
 C    -5.182579    -1.694162     0.550627
 C    -1.501982    -2.072865     1.481847
 H    -0.597400    -1.704557     0.995186
 H    -1.476551    -3.174858     1.494241
 H    -1.509625    -1.733539     2.530308
 B    -0.666806     1.375221     1.189082
 H    -1.132558     0.630440     1.979770
 B    -0.813678     2.370332    -1.529553
 H    -1.323275     2.256318    -2.593536
 C    -6.531672    -2.158106     1.074397
 H    -7.169307    -2.533420     0.259019
 H    -7.066581    -1.323594     1.558467
 H    -6.414379    -2.959130     1.818111
 C    -3.832221     0.408256    -2.349019
 H    -3.486151     1.430077    -2.141568
 H    -4.833971     0.469963    -2.797639
 H    -3.150265    -0.022630    -3.099402
 B    -1.716875     2.322801     0.023618
 H    -2.892716     2.214849     0.113714
 B    -0.733093     3.159109     1.245852
 H    -1.275813     3.730273     2.135659
 B    -0.760150     3.764449    -0.443197
 H    -1.313567     4.769227    -0.754370
 H    -1.114857    -0.618409    -1.779472
