   62
FINAL HEAT OF FORMATION = -6527.739888
Br     6.044914     2.864304     5.792270
Br     0.235355    -0.602401     6.512171
 C     4.014899     0.802651     3.553519
 C     2.465272     0.074701     3.691324
 C     2.557301     0.517935     5.154396
 C     1.910805     0.443365     6.353385
 C     2.470106     1.109312     7.494104
 C     1.845218     1.086560     8.770634
 C     2.393587     1.758241     9.848806
 C     3.597427     2.492219     9.695329
 C     4.237666     2.531330     8.469427
 C     3.708573     1.848448     7.340616
 C     4.364155     1.851241     6.064809
 C     3.806197     1.163656     5.027019
 C     5.090626    -0.229191     3.274276
 C     5.045676    -0.968256     2.079241
 C     6.015080    -1.933824     1.792814
 C     7.051058    -2.183133     2.707780
 C     7.100162    -1.455828     3.904857
 C     6.124687    -0.486195     4.182152
 C     4.106629     2.050882     2.678811
 C     3.322679     3.174820     2.996091
 C     3.396225     4.343254     2.234129
 C     4.263153     4.413526     1.131424
 C     5.064299     3.306858     0.818263
 C     4.988170     2.138513     1.591522
 C     2.413335    -1.446435     3.569000
 C     3.147872    -2.236633     4.471492
 C     3.107342    -3.631410     4.406591
 C     2.324164    -4.270272     3.431415
 C     1.571763    -3.493169     2.540002
 C     1.613957    -2.092693     2.614913
 C     1.434199     0.799034     2.847447
 C     0.339993     1.459106     3.418992
 C    -0.592372     2.133196     2.615901
 C    -0.438907     2.153570     1.222922
 C     0.657819     1.496560     0.641521
 C     1.583623     0.830580     1.449922
 H     0.921136     0.524937     8.885573
 H     1.896473     1.725866    10.818628
 H     4.021919     3.024587    10.546874
 H     5.161939     3.091696     8.350016
 H     4.235591    -0.804266     1.371940
 H     5.957559    -2.500934     0.862305
 H     7.807101    -2.938797     2.489570
 H     7.899702    -1.638958     4.624959
 H     6.183216     0.069874     5.114646
 H     2.645556     3.142164     3.846102
 H     2.775966     5.201193     2.498824
 H     4.322462     5.324495     0.534168
 H     5.760015     3.353980    -0.021420
 H     5.635967     1.299053     1.349627
 H     3.759949    -1.762439     5.234765
 H     3.688100    -4.222714     5.116470
 H     2.290866    -5.359370     3.377927
 H     0.939940    -3.974870     1.791621
 H     1.003304    -1.506221     1.932322
 H     0.200348     1.451881     4.497234
 H    -1.439992     2.639458     3.081292
 H    -1.161274     2.677860     0.595594
 H     0.796462     1.514265    -0.440718
 H     2.441389     0.347936     0.986596
