   54
FINAL HEAT OF FORMATION = -1304.566024
 C     9.115287     5.468209    10.806011
 C     7.708074     6.200610    11.462136
 C     7.519093     4.275813     9.186668
 C     6.408060     4.854029     9.704770
 C     9.103697     3.956236    10.944155
 C     9.845169     3.226448    11.871988
 H    10.491772     3.742883    12.581872
 C     9.754095     1.822084    11.884899
 H    10.338235     1.247220    12.605299
 C     8.917268     1.159141    10.975969
 H     8.851960     0.070040    10.990459
 C     8.156161     1.894041    10.047140
 H     7.494265     1.385703     9.345455
 C     8.251985     3.283212    10.037482
 C     9.330045     5.824112     9.345655
 C    10.269813     6.736522     8.868680
 H    10.917833     7.267894     9.566131
 C    10.376319     6.965412     7.484129
 H    11.115484     7.673845     7.106735
 C     9.537925     6.286654     6.588421
 H     9.626293     6.467827     5.516049
 C     8.577880     5.375338     7.067924
 H     7.914352     4.853296     6.377943
 C     8.478421     5.151271     8.438678
 C     6.741443     5.185663    12.045816
 C     6.558574     4.936763    13.405160
 H     7.142722     5.485683    14.144202
 C     5.616319     3.975262    13.815416
 H     5.465680     3.782619    14.878837
 C     4.870281     3.265133    12.864054
 H     4.140374     2.521880    13.188746
 C     5.062966     3.503737    11.490007
 H     4.495040     2.946437    10.744522
 C     5.995149     4.457727    11.089942
 C     6.968131     7.053338    10.446998
 C     6.984623     8.446461    10.400686
 H     7.570963     9.009920    11.126936
 C     6.240331     9.118183     9.413031
 H     6.245442    10.208786     9.377954
 C     5.492093     8.392364     8.475329
 H     4.916187     8.919282     7.712896
 C     5.485099     6.984955     8.510240
 H     4.915365     6.413993     7.776571
 C     6.221765     6.325717     9.491001
 C     9.840942     6.287497    11.866250
 C    11.114876     6.552035    12.356753
 H    12.014135     6.091511    11.946320
 C    11.192077     7.463443    13.433273
 H    12.166253     7.709513    13.859582
 C    10.035976     8.065202    13.972362
 H    10.140348     8.764010    14.804274
 C     8.750480     7.782740    13.459284
 H     7.862115     8.252759    13.882487
 C     8.695965     6.883450    12.400126
