   23
FINAL HEAT OF FORMATION =  -738.999449
 C     7.879867     5.701729     9.888408
 C     8.074492     6.991248    10.379358
 C     7.050476     7.939181    10.241271
 C     5.854424     7.558761     9.609619
 C     5.719217     6.257195     9.140368
 N     6.721379     5.360474     9.285310
 C     6.533098     4.005401     8.776977
 C     7.576991     2.832193     8.851815
 C     5.412417     2.988234     9.225781
 C     6.242617     3.602809     7.278519
 C     6.287403     2.253130     8.119289
 I     6.019495     0.281223     7.384058
 H     8.629964     4.918054     9.961192
 H     9.018053     7.241891    10.862035
 H     7.179510     8.954319    10.617490
 H     5.032851     8.261889     9.480603
 H     4.821808     5.896737     8.642913
 H     7.781072     2.416876     9.846201
 H     8.472129     2.928506     8.225405
 H     4.382301     3.227822     8.935862
 H     5.495251     2.596860    10.246648
 H     7.063458     3.757752     6.568274
 H     5.261527     3.878615     6.873506
