   50
FINAL HEAT OF FORMATION =  -978.796075
 B     5.749819     3.625657     3.570435
 B     4.194186     4.521559     3.609864
 B     3.579372     4.521506     5.294425
 B     5.744401     5.391071     3.585010
 B     4.408664     5.951226     4.642537
 C     4.432160     3.187321     4.651353
 C     2.711518     1.674746     4.024446
 H     2.019031     2.490668     3.771822
 N     3.912083     1.883580     4.461851
 C     2.226702     0.300390     3.848128
 C     0.922486     0.079447     3.372907
 H     0.279959     0.930162     3.138487
 C     0.446262    -1.228175     3.199780
 H    -0.566207    -1.395825     2.830933
 C     1.276418    -2.318317     3.502630
 H     0.909509    -3.336878     3.369225
 C     2.583408    -2.098320     3.978818
 H     3.225417    -2.948303     4.213010
 C     3.057110    -0.796929     4.151099
 H     4.062920    -0.596262     4.517617
 H     2.426292     4.358576     5.516156
 H     6.049297     2.832304     2.749804
 H     3.454811     4.358513     2.697672
 H     6.098770     5.975572     2.614219
 H     3.809975     6.953467     4.424060
 B     4.743693     3.625655     6.326746
 B     6.299323     4.521560     6.287318
 B     6.914138     4.521510     4.602756
 B     4.749106     5.391068     6.312173
 B     6.084842     5.951228     5.254646
 C     6.061353     3.187322     5.245828
 C     7.781997     1.674751     5.872734
 H     8.474481     2.490673     6.125361
 N     6.581432     1.883582     5.435328
 C     8.266813     0.300396     6.049060
 C     9.571027     0.079455     6.524287
 H    10.213552     0.930171     6.758708
 C    10.047251    -1.228166     6.697422
 H    11.059718    -1.395815     7.066274
 C     9.217097    -2.318310     6.394572
 H     9.584005    -3.336871     6.527983
 C     7.910108    -2.098315     5.918378
 H     7.268101    -2.948300     5.684186
 C     7.436407    -0.796925     5.746089
 H     6.430599    -0.596260     5.379565
 H     8.067218     4.358583     4.381026
 H     4.444217     2.832301     7.147377
 H     7.038699     4.358515     7.199510
 H     4.394736     5.975568     7.282963
 H     6.683529     6.953470     5.473123
