   72
scf done: -1216.585755
 N     1.685257     0.622360     0.299657
 N    -1.627503     0.585928     0.218139
 C     4.216662    -3.088728     0.472403
 H     4.041404    -4.097506     0.850423
 C     3.123318    -2.321251     0.041337
 C    -3.377743    -0.956189    -0.543131
 C     3.340741    -1.014776    -0.445021
 C     1.036437     1.846249     0.226277
 C     2.165624    -0.154805    -0.873828
 H     2.464303     0.549170    -1.661901
 H     1.348159    -0.770724    -1.276422
 C     5.524130    -2.585212     0.436514
 B    -1.446054     3.156660    -0.682752
 C    -1.006898     1.825747     0.218935
 B     0.070517     2.221331    -1.135787
 C    -5.656265    -1.237592     0.255238
 H    -6.616150    -0.798903     0.534331
 C     4.649333    -0.484662    -0.472088
 C    -3.192279    -2.351952    -0.476798
 C     5.721281    -1.280515    -0.038065
 H     6.731170    -0.867801    -0.063213
 C    -2.246680    -0.042420    -0.979250
 H    -1.488806    -0.592318    -1.555106
 H    -2.625901     0.760741    -1.625485
 B     1.510799     3.225189    -0.633427
 B    -0.043256     2.202494     1.584861
 C    -4.622842    -0.394317    -0.175210
 B     0.033090     3.999527    -1.205532
 C    -4.250523    -3.168337    -0.039815
 H    -4.102031    -4.248118     0.008973
 C    -5.485904    -2.628410     0.335971
 B    -1.498096     3.187281     1.111365
 B     1.451966     3.171646     1.159684
 C     6.701253    -3.442382     0.872053
 H     7.095135    -4.020706     0.018503
 H     6.404883    -4.158754     1.652603
 H     7.522031    -2.822991     1.262823
 C     1.727282    -2.921037     0.096087
 H     1.736304    -3.872063     0.647527
 H     1.345380    -3.127997    -0.917081
 H     1.017378    -2.244682     0.593486
 B    -0.888297     4.590888     0.224506
 C    -1.881785    -3.007233    -0.887393
 H    -1.875756    -4.066590    -0.593413
 H    -1.016219    -2.521665    -0.417712
 H    -1.737787    -2.964881    -1.980386
 B     0.871977     4.607400     0.271560
 C    -4.872891     1.102085    -0.268202
 H    -5.847037     1.358469     0.172302
 H    -4.882727     1.438000    -1.318992
 H    -4.096461     1.677616     0.253498
 B    -0.036763     3.983525     1.690174
 C    -6.619268    -3.517745     0.821135
 H    -6.876877    -3.290371     1.868706
 H    -6.340878    -4.579509     0.762088
 H    -7.527548    -3.366836     0.215768
 C     4.923734     0.925793    -0.968730
 H     5.977905     1.191882    -0.806599
 H     4.299592     1.665579    -0.447242
 H     4.717059     1.019421    -2.048093
 H     0.076140     1.478838    -2.058481
 H    -2.502377     3.054875     1.728060
 H    -0.039185     1.420757     2.479195
 H     1.488774     5.622895     0.302657
 H    -2.404691     3.060317    -1.373523
 H     2.420528     3.053769     1.835144
 H    -1.525569     5.593850     0.201597
 H     0.032164     4.585306    -2.239566
 H     2.511588     3.135076    -1.262671
 H    -0.048891     4.549070     2.735074
 H     1.999535     0.307904     1.219276
 H    -1.708530     0.087285     1.105523
