   54
scf done:  -981.241044
 B     1.217770    -2.055567    -0.000000
 B     0.755489    -3.020162     1.481636
 B    -1.037011    -3.048417     1.477346
 B    -1.516448    -2.094880    -0.000000
 B     1.318752    -3.825397    -0.000000
 B    -0.120065    -4.450702     0.881989
 B    -1.575755    -3.869552    -0.000000
 C    -0.153996    -1.691380     1.007281
 N    -0.219078    -0.443737     1.611725
 C     0.957483     0.347011     2.038149
 H     1.526140     0.691247     1.159004
 H     1.625604    -0.286482     2.641582
 C     0.475142     1.537218     2.842315
 C     0.326923     1.446439     4.235212
 H     0.588624     0.517588     4.744609
 C    -0.148590     2.542089     4.970750
 H    -0.252425     2.466162     6.054032
 C    -0.489855     3.734975     4.313686
 H    -0.857471     4.588321     4.884905
 C    -0.351528     3.828696     2.919832
 H    -0.613190     4.754731     2.406118
 C     0.127957     2.731253     2.190442
 H     0.236564     2.800548     1.106972
 H     2.133223    -1.306523    -0.000000
 H    -2.607442    -4.458100    -0.000000
 H     1.409129    -2.900127     2.464120
 H    -2.422769    -1.328337     0.000000
 H     2.365012    -4.388068    -0.000000
 H    -1.683722    -2.931921     2.464379
 H    -0.102855    -5.460663     1.508056
 H    -1.140951    -0.040649     1.784217
 B     0.755489    -3.020162    -1.481636
 B    -1.037011    -3.048417    -1.477346
 B    -0.120065    -4.450702    -0.881989
 C    -0.153996    -1.691380    -1.007281
 N    -0.219078    -0.443737    -1.611725
 C     0.957483     0.347011    -2.038149
 H     1.526140     0.691247    -1.159004
 H     1.625604    -0.286482    -2.641582
 C     0.475142     1.537218    -2.842315
 C     0.326923     1.446439    -4.235212
 H     0.588624     0.517588    -4.744609
 C    -0.148590     2.542089    -4.970750
 H    -0.252425     2.466162    -6.054032
 C    -0.489855     3.734975    -4.313686
 H    -0.857471     4.588321    -4.884905
 C    -0.351528     3.828696    -2.919832
 H    -0.613190     4.754731    -2.406118
 C     0.127957     2.731253    -2.190442
 H     0.236564     2.800548    -1.106972
 H     1.409129    -2.900127    -2.464120
 H    -1.683722    -2.931921    -2.464379
 H    -0.102855    -5.460663    -1.508056
 H    -1.140951    -0.040649    -1.784217
