   66
scf done: -1540.166443
 C    -0.000116     4.263287     1.517630
 C     0.000070     4.720396     0.210276
 C     0.000403     4.094523    -2.252048
 H    -0.000184     4.981404     2.333199
 H     0.000146     5.787333     0.002467
 H     0.000504     5.132156    -2.575625
 C    -0.000079     1.941709     0.813421
 C    -0.000197     2.878947     1.834760
 C     0.000200     3.791955    -0.863347
 C     0.000518     3.071925    -3.186647
 C     0.000402     1.702514    -2.809085
 C     0.000172     1.384465    -1.467762
 C     0.000104     2.414515    -0.512635
 C    -0.000024     0.409274     0.875132
 C    -1.266778    -0.105799     1.584734
 C    -2.229602     0.785142     2.087811
 C    -3.452093     0.356639     2.602821
 C    -3.769090    -1.001979     2.605734
 C    -2.830859    -1.904610     2.123469
 C    -1.570526    -1.491405     1.646005
 C    -0.674613    -2.553084     1.223883
 C     0.674846    -2.553016     1.223938
 C     1.570707    -1.491266     1.645933
 C     1.266863    -0.105677     1.584645
 C    -0.000046    -0.003114    -0.816453
 C    -1.350275    -0.633294    -1.203700
 C    -2.453076     0.224874    -1.018648
 C    -3.772991    -0.166687    -1.212171
 C    -4.045734    -1.464813    -1.645446
 C    -2.979390    -2.318379    -1.879350
 C    -1.629014    -1.941335    -1.672877
 C    -0.674170    -2.988879    -1.985302
 C     0.673369    -2.989067    -1.985280
 C     1.628457    -1.941768    -1.672770
 C     1.349961    -0.633634    -1.203658
 H    -0.000339     2.571208     2.876786
 H     0.000681     3.320602    -4.244516
 H     0.000476     0.925954    -3.568121
 H    -2.051308     1.850543     2.030726
 H    -4.164820     1.091954     2.965969
 H    -4.729545    -1.350881     2.974120
 H    -3.053329    -2.968773     2.120186
 H    -1.165926    -3.486694     0.958381
 H     1.166262    -3.486597     0.958464
 H    -2.270888     1.238387    -0.681849
 H    -4.575350     0.538588    -1.017968
 H    -5.066286    -1.801053    -1.804174
 H    -3.170488    -3.327538    -2.236642
 H    -1.142933    -3.923835    -2.288478
 H     1.141894    -3.924154    -2.288433
 H     2.270962     1.237869    -0.681872
 C     2.831176    -1.904368     2.123151
 C     3.769458    -1.001653     2.605150
 C     3.452377     0.356947     2.602209
 C     2.229750     0.785340     2.087440
 C     2.978744    -2.319140    -1.879057
 C     4.045272    -1.465788    -1.645145
 C     3.772795    -0.167568    -1.212041
 C     2.452941     0.224296    -1.018616
 H     3.053696    -2.968523     2.119897
 H     4.730034    -1.350457     2.973308
 H     4.165159     1.092339     2.965097
 H     2.051391     1.850727     2.030301
 H     3.169651    -3.328367    -2.236269
 H     5.065751    -1.802314    -1.803734
 H     4.575288     0.537552    -1.017854
