  212
scf done: -3353.818566
 C     0.828321    -0.009877     0.007863
 C    -0.828321     0.009877    -0.007863
 C     1.454378     0.314341    -1.386402
 C    -1.454378    -0.314341     1.386402
 C    -1.416555     1.395636    -0.422862
 C     1.416555    -1.395636     0.422862
 C     1.416053     1.041137     1.000015
 C    -1.416053    -1.041137    -1.000015
 C     1.031367     1.079004     2.350540
 C    -1.031367    -1.079004    -2.350540
 C    -1.053905    -1.431641     2.146530
 C     1.053905     1.431641    -2.146530
 C     1.025600    -2.590189    -0.203848
 C    -1.025600     2.590189     0.203848
 C     2.455887     1.893851     0.609214
 C    -2.455887    -1.893851    -0.609214
 C    -2.562621     0.403342     1.843097
 C     2.562621    -0.403342    -1.843097
 C     2.498868    -1.465942     1.310324
 C    -2.498868     1.465942    -1.310324
 C     1.581742     1.988820     3.260064
 C    -1.581742    -1.988820    -3.260064
 C    -1.694741    -1.790626     3.333688
 C     1.694741     1.790626    -3.333688
 C     1.644886    -3.815669     0.069474
 C    -1.644886     3.815669    -0.069474
 C     3.070354     2.787328     1.500175
 C    -3.070354    -2.787328    -1.500175
 C    -3.265373     0.047742     3.008017
 C     3.265373    -0.047742    -3.008017
 C     3.170234    -2.667215     1.584666
 C    -3.170234     2.667215    -1.584666
 C     2.598557     2.848511     2.815816
 C    -2.598557    -2.848511    -2.815816
 C    -2.814604    -1.045204     3.746541
 C     2.814604     1.045204    -3.746541
 C     2.723281    -3.838870     0.965576
 C    -2.723281     3.838870    -0.965576
 H     0.288817     0.382492     2.706561
 H    -0.288817    -0.382492    -2.706561
 H    -0.224932    -2.028196     1.803720
 H     0.224932     2.028196    -1.803720
 H     0.226557    -2.570870    -0.928416
 H    -0.226557     2.570870     0.928416
 H     2.822410     1.850841    -0.406973
 H    -2.822410    -1.850841     0.406973
 H    -2.920527     1.248426     1.271722
 H     2.920527    -1.248426    -1.271722
 H     2.856215    -0.559233     1.779741
 H    -2.856215     0.559233    -1.779741
 C     1.111944     1.954584     4.722140
 C    -1.111944    -1.954584    -4.722140
 C    -1.228366    -2.988611     4.171562
 C     1.228366     2.988611    -4.171562
 C     1.116944    -5.081084    -0.620931
 C    -1.116944     5.081084     0.620931
 C     4.286763     3.589566     1.017033
 C    -4.286763    -3.589566    -1.017033
 C    -4.511323     0.857086     3.386883
 C     4.511323    -0.857086    -3.386883
 C     4.389312    -2.635052     2.515876
 C    -4.389312     2.635052    -2.515876
 H     3.042829     3.550996     3.510059
 H    -3.042829    -3.550996    -3.510059
 H    -3.335367    -1.333738     4.653504
 H     3.335367     1.333738    -4.653504
 H     3.222268    -4.776892     1.174537
 H    -3.222268     4.776892    -1.174537
 C     5.116168    -0.403661    -4.725229
 C    -5.116168     0.403661     4.725229
 C    -4.966287     4.036744    -2.771811
 C     4.966287    -4.036744     2.771811
 C     4.761633     4.614311     2.060001
 C    -4.761633    -4.614311    -2.060001
 C     5.572413    -0.672438    -2.278354
 C    -5.572413     0.672438     2.278354
 C    -5.487025     1.763961    -1.863625
 C     5.487025    -1.763961     1.863625
 C     5.434827     2.588377     0.748360
 C    -5.434827    -2.588377    -0.748360
 C     4.152528    -2.355004    -3.497814
 C    -4.152528     2.355004     3.497814
 C    -3.997178     2.015193    -3.873665
 C     3.997178    -2.015193     3.873665
 C     3.968815     4.343712    -0.291534
 C    -3.968815    -4.343712     0.291534
 C     1.025753     2.551401    -5.638959
 C    -1.025753    -2.551401     5.638959
 C    -1.947151     6.327118     0.274204
 C     1.947151    -6.327118    -0.274204
 C     1.620303     3.164730     5.523715
 C    -1.620303    -3.164730    -5.523715
 C    -0.099748     3.568244    -3.658465
 C     0.099748    -3.568244     3.658465
 C     0.341838     5.317333     0.174715
 C    -0.341838    -5.317333    -0.174715
 C    -0.429475     1.938605     4.799276
 C     0.429475    -1.938605    -4.799276
 C     2.305434     4.094106    -4.115994
 C    -2.305434    -4.094106     4.115994
 C    -1.137202     4.888713     2.152429
 C     1.137202    -4.888713    -2.152429
 C     1.654196     0.663545     5.373523
 C    -1.654196    -0.663545    -5.373523
 H     0.685534     3.403662    -6.239954
 H    -0.685534    -3.403662     6.239954
 H    -1.533398     7.199126     0.793714
 H     1.533398    -7.199126    -0.793714
 H     1.218967     3.124548     6.542922
 H    -1.218967    -3.124548    -6.542922
 H     1.952740     2.176616    -6.085941
 H    -1.952740    -2.176616     6.085941
 H    -2.992632     6.215578     0.585637
 H     2.992632    -6.215578    -0.585637
 H     2.713751     3.175134     5.600236
 H    -2.713751    -3.175134    -5.600236
 H     0.272901     1.759299    -5.709578
 H    -0.272901    -1.759299     5.709578
 H    -1.927869     6.539608    -0.801223
 H     1.927869    -6.539608     0.801223
 H     1.296752     4.108723     5.069171
 H    -1.296752    -4.108723    -5.069171
 H     2.007345     4.948758    -4.736292
 H    -2.007345    -4.948758     4.736292
 H    -0.764151     5.792872     2.649878
 H     0.764151    -5.792872    -2.649878
 H     1.308208     0.582631     6.411864
 H    -1.308208    -0.582631    -6.411864
 H     2.444272     4.447380    -3.088394
 H    -2.444272    -4.447380     3.088394
 H    -0.499268     4.053040     2.454945
 H     0.499268    -4.053040    -2.454945
 H     1.310497    -0.220883     4.826709
 H    -1.310497     0.220883    -4.826709
 H     3.271440     3.728213    -4.482328
 H    -3.271440    -3.728213     4.482328
 H    -2.153869     4.692846     2.510660
 H     2.153869    -4.692846    -2.510660
 H     2.750062     0.657085     5.374301
 H    -2.750062    -0.657085    -5.374301
 H    -0.419532     4.389975    -4.310376
 H     0.419532    -4.389975     4.310376
 H     0.759099     6.194553     0.686069
 H    -0.759099    -6.194553    -0.686069
 H    -0.746629     1.900978     5.849144
 H     0.746629    -1.900978    -5.849144
 H    -0.891839     2.812145    -3.650000
 H     0.891839    -2.812145     3.650000
 H     0.397547     5.492477    -0.905910
 H    -0.397547    -5.492477     0.905910
 H    -0.853489     2.840435     4.346454
 H     0.853489    -2.840435    -4.346454
 H    -0.009288     3.964765    -2.642535
 H     0.009288    -3.964765     2.642535
 H     0.968294     4.452904     0.413751
 H    -0.968294    -4.452904    -0.413751
 H    -0.861184     1.071714     4.291573
 H     0.861184    -1.071714    -4.291573
 H     5.992300    -1.018872    -4.960333
 H    -5.992300     1.018872     4.960333
 H    -5.822891     3.962676    -3.451672
 H     5.822891    -3.962676     3.451672
 H     5.612225     5.178498     1.660486
 H    -5.612225    -5.178498    -1.660486
 H     4.398134    -0.511824    -5.546822
 H    -4.398134     0.511824     5.546822
 H    -4.224571     4.697704    -3.235712
 H     4.224571    -4.697704     3.235712
 H     3.968545     5.329718     2.308116
 H    -3.968545    -5.329718    -2.308116
 H     5.443940     0.641884    -4.687913
 H    -5.443940    -0.641884     4.687913
 H    -5.316112     4.506733    -1.845199
 H     5.316112    -4.506733     1.845199
 H     5.091068     4.128950     2.986023
 H    -5.091068    -4.128950    -2.986023
 H     6.474810    -1.251208    -2.512618
 H    -6.474810     1.251208     2.512618
 H    -6.368397     1.709174    -2.515041
 H     6.368397    -1.709174     2.515041
 H     6.332292     3.118073     0.404406
 H    -6.332292    -3.118073    -0.404406
 H     5.854768     0.382589    -2.184041
 H    -5.854768    -0.382589     2.184041
 H    -5.796695     2.187697    -0.901415
 H     5.796695    -2.187697     0.901415
 H     5.688554     2.035448     1.660287
 H    -5.688554    -2.035448    -1.660287
 H     5.193832    -1.009064    -1.307602
 H    -5.193832     1.009064     1.307602
 H    -5.131486     0.743445    -1.685137
 H     5.131486    -0.743445     1.685137
 H     5.150693     1.861216    -0.020070
 H    -5.150693    -1.861216     0.020070
 H     5.046754    -2.937670    -3.752065
 H    -5.046754     2.937670     3.752065
 H    -4.870703     1.972728    -4.536241
 H     4.870703    -1.972728     4.536241
 H     4.866640     4.862230    -0.649997
 H    -4.866640    -4.862230     0.649997
 H     3.752623    -2.744928    -2.556282
 H    -3.752623     2.744928     2.556282
 H    -3.615385     0.997098    -3.753998
 H     3.615385    -0.997098     3.753998
 H     3.637662     3.663945    -1.082761
 H    -3.637662    -3.663945     1.082761
 H     3.401275    -2.517873    -4.278078
 H    -3.401275     2.517873     4.278078
 H    -3.221739     2.612211    -4.366517
 H     3.221739    -2.612211     4.366517
 H     3.183579     5.089994    -0.133401
 H    -3.183579    -5.089994     0.133401
