   66
scf done: -2159.258905
Cl    -1.922160     2.991761    -1.075396
Cl    -1.922310    -2.991957     1.075041
 C    -0.712904    -0.663857     0.248925
 C     0.808254    -0.707972     0.446950
 C     0.808266     0.707927    -0.446847
 C    -0.712896     0.663711    -0.249024
 C    -1.885123     1.344176    -0.467242
 C    -3.135377     0.684984    -0.225781
 C    -4.383011     1.328382    -0.435242
 C    -5.575383     0.670720    -0.219037
 C    -5.575403    -0.670694     0.218886
 C    -4.383055    -1.328413     0.435050
 C    -3.135395    -0.685078     0.225543
 C    -1.885163    -1.344318     0.467013
 C     1.565269    -1.869357    -0.170328
 C     0.892862    -2.891029    -0.854181
 C     1.586027    -3.949733    -1.447028
 C     2.976936    -4.015895    -1.360959
 C     3.663749    -3.009600    -0.675791
 C     2.966429    -1.953298    -0.092186
 C     1.094604    -0.600806     2.041659
 C    -0.044834     0.131862     2.784603
 C     1.155390    -2.040363     2.603804
 C     2.395948     0.103875     2.496069
 C     1.565085     1.869417     0.170488
 C     0.892505     2.890916     0.854428
 C     1.585484     3.949731     1.447297
 C     2.976375     4.016187     1.361165
 C     3.663358     3.010078     0.675889
 C     2.966221     1.953672     0.092254
 C     1.094915     0.600756    -2.041520
 C    -0.044422    -0.131904    -2.784647
 C     1.155816     2.040317    -2.603664
 C     2.396314    -0.103953    -2.495799
 H    -4.384503     2.357236    -0.775402
 H    -6.515150     1.188100    -0.387657
 H    -6.515186    -1.188026     0.387559
 H    -4.384592    -2.357260     0.775224
 H    -0.187207    -2.860425    -0.933815
 H     1.032320    -4.721482    -1.974536
 H     3.519261    -4.837154    -1.820721
 H     4.747583    -3.039565    -0.604007
 H     3.528107    -1.168677     0.398424
 H    -0.986075    -0.423838     2.758124
 H     0.247209     0.243366     3.835680
 H    -0.220642     1.133185     2.383116
 H     2.081128    -2.547966     2.318156
 H     1.119056    -1.989276     3.698917
 H     0.316434    -2.651392     2.266208
 H     2.313341     1.190676     2.474123
 H     2.572446    -0.192211     3.538154
 H     3.283408    -0.183820     1.930846
 H    -0.187556     2.860100     0.934120
 H     1.031638     4.721338     1.974866
 H     3.518554     4.837542     1.820926
 H     4.747179     3.040280     0.604008
 H     3.528033     1.169251    -0.398530
 H    -0.220397    -1.133169    -2.383075
 H    -0.985627     0.423873    -2.758440
 H     0.247851    -0.243552    -3.835648
 H     0.316980     2.651462    -2.265980
 H     2.081645     2.547800    -2.318099
 H     1.119374     1.989234    -3.698769
 H     2.573333     0.192762    -3.537615
 H     3.283631     0.183038    -1.930003
 H     2.313377    -1.190755    -2.474589
