   66
scf done: -2159.243804
Cl     2.883762     2.575788     0.581471
Cl     0.723631    -3.227658    -0.687414
 C     0.441983    -0.526435    -0.356591
 C    -1.008608    -0.237965     0.023243
 C    -0.492864     1.395660     0.070325
 C     0.907869     0.775928    -0.056471
 C     2.254603     1.032136     0.032949
 C     3.192653    -0.007185    -0.284132
 C     4.594952     0.212396    -0.281855
 C     5.480692    -0.800091    -0.585332
 C     5.004396    -2.090824    -0.900702
 C     3.649294    -2.345007    -0.907410
 C     2.707327    -1.327229    -0.608014
 C     1.296852    -1.575404    -0.580097
 C    -1.271826    -0.996433     1.361157
 C    -0.202697    -1.427831     2.170455
 C    -0.413570    -2.163513     3.335965
 C    -1.707456    -2.503032     3.734753
 C    -2.780046    -2.100782     2.940300
 C    -2.562920    -1.371631     1.768419
 C    -2.118801    -0.596616    -0.954663
 C    -1.920862    -1.543236    -1.968382
 C    -2.950193    -1.890962    -2.844454
 C    -4.209667    -1.299450    -2.726139
 C    -4.425877    -0.359608    -1.716427
 C    -3.392751    -0.017800    -0.840973
 C    -0.831315     2.210288     1.396779
 C    -2.336753     2.134872     1.729435
 C    -0.455920     3.714409     1.372796
 C    -0.071539     1.662872     2.630581
 C    -0.740490     2.194847    -1.323462
 C    -0.672787     1.311332    -2.600006
 C    -2.084330     2.947906    -1.425878
 C     0.407484     3.214450    -1.555300
 H     4.963770     1.202634    -0.041241
 H     6.548226    -0.600819    -0.581944
 H     5.704690    -2.885508    -1.140144
 H     3.280181    -3.335401    -1.148086
 H     0.815932    -1.170158     1.906275
 H     0.442748    -2.471681     3.929294
 H    -1.874168    -3.079913     4.639937
 H    -3.797011    -2.365002     3.217160
 H    -3.421557    -1.118106     1.159829
 H    -0.944716    -1.990606    -2.100008
 H    -2.760453    -2.621073    -3.626420
 H    -5.010135    -1.565412    -3.410569
 H    -5.397893     0.113569    -1.606823
 H    -3.581187     0.713179    -0.063119
 H    -2.662427     1.103992     1.884205
 H    -2.962355     2.596746     0.961611
 H    -2.516381     2.674428     2.667381
 H    -0.936156     4.285927     0.578322
 H    -0.788301     4.146170     2.324577
 H     0.624686     3.862144     1.310713
 H    -0.179937     2.382693     3.450732
 H     0.998569     1.548619     2.434114
 H    -0.465485     0.711465     2.980654
 H     0.118993     0.557474    -2.555500
 H    -1.615683     0.816072    -2.825007
 H    -0.443766     1.972328    -3.444578
 H    -2.936855     2.271840    -1.349161
 H    -2.131094     3.412645    -2.418673
 H    -2.202013     3.746379    -0.691380
 H     0.130641     3.844704    -2.408898
 H     0.619224     3.870243    -0.715573
 H     1.333223     2.695852    -1.821844
