   62
scf done: -6534.037095
Br     1.756935     3.286186    -0.570516
Br     1.757745    -3.285135     0.572787
 C    -0.850656     0.824269    -0.248679
 C    -0.850595    -0.824492     0.248299
 C     0.662187    -0.683595     0.166669
 C     1.822800    -1.402738     0.267602
 C     3.072150    -0.714476     0.123374
 C     4.320883    -1.379139     0.231322
 C     5.512526    -0.695386     0.116882
 C     5.512363     0.697601    -0.112992
 C     4.320547     1.380935    -0.228171
 C     3.071982     0.715868    -0.120867
 C     1.822468     1.403756    -0.265519
 C     0.662052     0.684299    -0.164555
 C    -1.402355     0.969964    -1.651190
 C    -2.735284     0.609711    -1.914134
 C    -3.258874     0.686939    -3.202791
 C    -2.455787     1.124250    -4.260685
 C    -1.130350     1.482398    -4.012998
 C    -0.608357     1.403394    -2.718490
 C    -1.412379     1.820034     0.755614
 C    -0.778216     1.965116     2.002373
 C    -1.281492     2.831388     2.969206
 C    -2.427438     3.587677     2.706714
 C    -3.049488     3.475608     1.462868
 C    -2.544322     2.603959     0.494214
 C    -1.410060    -1.820616    -0.756854
 C    -0.773985    -1.965169    -2.002686
 C    -1.275287    -2.831760    -2.970271
 C    -2.421041    -3.588942    -2.709447
 C    -3.044906    -3.477427    -1.466447
 C    -2.541817    -2.605378    -0.497090
 C    -1.404435    -0.970515     1.649897
 C    -0.611582    -1.403576     2.718225
 C    -1.135270    -1.483157     4.011997
 C    -2.461283    -1.125878     4.257892
 C    -3.263166    -0.688813     3.198990
 C    -2.737898    -0.611117     1.911026
 H     4.319235    -2.448371     0.412225
 H     6.452898    -1.231262     0.205578
 H     6.452587     1.233774    -0.200991
 H     4.318658     2.450123    -0.409369
 H    -3.357340     0.234588    -1.107133
 H    -4.288182     0.390121    -3.383071
 H    -2.859413     1.177871    -5.267869
 H    -0.494103     1.820048    -4.826449
 H     0.427548     1.672111    -2.543840
 H     0.109757     1.381067     2.221694
 H    -0.777506     2.914965     3.927862
 H    -2.822772     4.264208     3.459384
 H    -3.928404     4.073100     1.235886
 H    -3.030889     2.546074    -0.472957
 H     0.113934    -1.380571    -2.220711
 H    -0.769982    -2.914719    -3.928287
 H    -2.814795    -4.265663    -3.462732
 H    -3.923648    -4.075631    -1.240699
 H    -3.029810    -2.547785     0.469377
 H     0.424817    -1.671301     2.544918
 H    -0.499959    -1.820661     4.826238
 H    -2.866215    -1.179807     5.264542
 H    -4.292891    -0.392704     3.377868
 H    -3.359126    -0.236322     1.103235
