   74
scf done: -1245.006758
 C    -0.617789    -0.030077    -0.122898
 C    -0.958615    -1.537713    -0.416766
 C     1.029706     0.185916     0.176707
 C    -2.389353    -1.736087    -0.970294
 C     1.195188     1.320930     1.222928
 C    -1.686408     0.381051     1.001230
 C     1.818776     0.591835    -1.124519
 C    -1.740203     1.888482     1.355199
 C    -2.441947     0.582852    -1.868463
 C     2.740637    -1.731259    -1.552958
 C    -1.012836     0.868424    -1.352454
 C    -3.147020     0.125807     0.447227
 C    -1.552726    -0.508378     2.253566
 C     3.264121     1.059134    -0.790488
 C     3.346009    -0.575121     1.069100
 C    -0.948021     2.378437    -1.029993
 C    -3.404091    -1.344691     0.116353
 C     1.888069    -1.029237     0.727071
 C    -3.455312     0.985530    -0.785959
 C     4.069426    -0.117586    -0.213594
 C     2.636101     1.746757     1.516432
 C     1.927756    -0.565146    -2.140240
 C     4.162060    -1.251085    -1.237975
 C     2.087167    -2.215522    -0.248233
 C    -1.831301    -1.987607     1.920957
 C     3.388514     0.552100     2.099705
 C    -1.944160     2.745754     0.086656
 C     3.276235     2.220681     0.207116
 C    -2.605877    -0.894045    -2.227942
 C    -3.355321     2.475602    -0.451405
 C    -0.863536    -2.453488     0.827351
 C    -3.257206    -2.175250     1.392615
 H    -0.343917     0.653448    -2.190430
 H     2.774658    -2.557407    -2.275025
 H     2.610767     2.571365     2.241500
 H     2.912790     0.233189     3.037992
 H    -1.876190    -1.177703    -3.000312
 H     0.139850    -2.511862     1.238826
 H    -4.472724     0.748233    -1.131727
 H    -2.598063     1.202197    -2.764414
 H     0.936822    -0.914147    -2.451207
 H    -1.224032     2.932501    -1.939402
 H     4.662212    -0.894405    -2.149737
 H     4.760930    -2.080585    -0.836402
 H    -3.823248     0.420642     1.266184
 H    -2.615146     2.031086     2.008191
 H    -4.110657     2.743213     0.300685
 H     4.308793     2.557476     0.375325
 H     0.064637     2.701641    -0.778733
 H     1.336185     1.443620    -1.609621
 H     2.714532     3.076811    -0.193796
 H    -3.607604    -1.075775    -2.642469
 H    -0.282603    -1.900939    -1.194802
 H     2.426697    -0.191743    -3.046321
 H     1.455586    -1.376984     1.672514
 H     3.724858     1.380902    -1.736735
 H    -3.442705    -3.239664     1.191230
 H    -3.999119    -1.845594     2.133869
 H    -0.551875    -0.414975     2.693414
 H    -2.501821    -2.802890    -1.214659
 H     4.431434     0.810961     2.331207
 H     0.730398     1.006307     2.163469
 H    -1.683466    -2.594392     2.824024
 H    -3.549924     3.083170    -1.346674
 H     0.667838     2.209967     0.886238
 H     2.754098    -2.941684     0.239622
 H     1.168593    -2.754198    -0.470824
 H    -0.886868     2.226869     1.938925
 H    -1.835954     3.808224     0.340937
 H    -4.424654    -1.446340    -0.282740
 H     3.858984    -1.459923     1.474137
 H    -1.130579    -3.474337     0.515816
 H    -2.266913    -0.158683     3.014387
 H     5.079147     0.230401     0.051362
