   28
scf done:  -442.952684
 C    -0.793646     0.946155    -0.057387
 N    -2.056966     1.537929    -0.079198
 B    -0.424363     0.024251     1.333095
 C    -0.826100    -0.902652    -0.045201
 N    -2.109415    -1.450143    -0.059129
 B     0.482295    -1.445818     0.863677
 B     1.347828    -0.006359     1.423606
 B     1.934021    -0.910506    -0.006576
 B     1.964879     0.857918    -0.018438
 B     0.533353     1.455134     0.844461
 B     0.557755     1.442920    -0.929058
 B    -0.385897     0.004875    -1.423992
 B     0.507311    -1.458386    -0.909771
 B     1.388064    -0.026374    -1.464798
 H     1.976447    -0.043217    -2.494005
 H     0.302305    -2.434980     1.490929
 H     0.344191    -2.456499    -1.527354
 H    -1.216235     0.044111     2.212618
 H    -1.152264     0.012534    -2.326014
 H     2.974583     1.479475    -0.008208
 H     0.430262     2.437501    -1.560552
 H     0.388337     2.458388     1.458240
 H     2.921270    -1.566949     0.012611
 H     1.907192    -0.009358     2.468986
 H    -2.305820    -1.986448    -0.897799
 H    -2.329199    -1.974262     0.781443
 H    -2.258649     2.080293     0.754274
 H    -2.234845     2.069216    -0.925133
