   72
scf done: -1219.709571
 N     1.577779     0.501004     0.240126
 N    -1.521630     0.468916     0.196640
 C     4.211885    -3.068152     0.345210
 H     4.012593    -4.098798     0.633086
 C     3.154461    -2.275461    -0.112895
 C    -3.388081    -0.936792    -0.529942
 C     3.404583    -0.939113    -0.483312
 C     0.984047     1.749039     0.201221
 C     2.261739    -0.063353    -0.941633
 H     2.625254     0.748701    -1.578508
 H     1.537483    -0.639333    -1.526916
 C     5.513596    -2.565912     0.449547
 B    -1.443767     3.068082    -0.676131
 C    -0.955876     1.726281     0.193795
 B     0.030206     2.148834    -1.151065
 C    -5.669216    -1.120256     0.269194
 H    -6.609037    -0.641690     0.538564
 C     4.703231    -0.404356    -0.359655
 C    -3.250018    -2.334556    -0.429686
 C     5.735802    -1.229350     0.100331
 H     6.737524    -0.814321     0.194540
 C    -2.225769    -0.080058    -0.979483
 H    -1.520208    -0.659201    -1.582593
 H    -2.579236     0.750494    -1.598920
 B     1.470799     3.106208    -0.655987
 B    -0.004122     2.112614     1.558642
 C    -4.609930    -0.323552    -0.174020
 B     0.008571     3.927689    -1.207654
 C    -4.335728    -3.098467     0.017331
 H    -4.223786    -4.178536     0.091206
 C    -5.552983    -2.511945     0.372686
 B    -1.461808     3.050144     1.098565
 B     1.452096     3.068845     1.117485
 C     6.650294    -3.445646     0.913456
 H     7.126436    -3.950834     0.062822
 H     6.298348    -4.222260     1.600571
 H     7.424091    -2.861540     1.422437
 C     1.757828    -2.849496    -0.188862
 H     1.709518    -3.823730     0.306495
 H     1.434800    -2.989528    -1.228943
 H     1.032143    -2.182647     0.290000
 B    -0.891612     4.488834     0.235921
 C    -1.957189    -3.029144    -0.795109
 H    -2.004023    -4.090914    -0.535513
 H    -1.103312    -2.590636    -0.269244
 H    -1.748506    -2.959945    -1.870544
 B     0.872543     4.506406     0.252297
 C    -4.793979     1.173318    -0.273712
 H    -5.779588     1.466354     0.099160
 H    -4.713448     1.520478    -1.311598
 H    -4.038643     1.718278     0.302999
 B    -0.016583     3.885063     1.677359
 C    -6.708773    -3.348365     0.868674
 H    -6.901487    -3.162899     1.932945
 H    -6.506925    -4.417043     0.746529
 H    -7.631518    -3.111712     0.326329
 C     4.996324     1.040167    -0.698935
 H     6.034323     1.288138    -0.459118
 H     4.348440     1.727939    -0.142867
 H     4.843131     1.246478    -1.765753
 H     0.038955     1.409609    -2.074495
 H    -2.456974     2.893630     1.723587
 H     0.000700     1.324891     2.444001
 H     1.498320     5.513882     0.272719
 H    -2.420679     2.956711    -1.336361
 H     2.439104     2.925691     1.759139
 H    -1.538453     5.483140     0.238908
 H     0.005500     4.515632    -2.237634
 H     2.464581     3.006662    -1.293396
 H    -0.027087     4.437839     2.726685
 H     2.045562     0.301581     1.117575
 H    -1.886035     0.167417     1.092383
