   55
scf done: -1021.862628
 B    -2.293936    -0.098084    -1.451292
 H    -1.522495    -0.206226    -2.338472
 B    -3.099806     1.394631    -1.008364
 H    -2.934018     2.350919    -1.684404
 B    -3.017941     1.560762     0.772384
 H    -2.840285     2.626106     1.255760
 B    -2.198871     0.160246     1.467916
 H    -1.369122     0.221728     2.303064
 B    -3.070178    -1.308051     1.067066
 H    -2.906425    -2.272318     1.733515
 B    -3.115515    -1.469465    -0.717337
 H    -2.988125    -2.537420    -1.211339
 B    -4.031910    -0.079212    -1.381467
 H    -4.663077    -0.180312    -2.379876
 B    -3.932029     0.201309     1.498412
 H    -4.501390     0.321846     2.531234
 B    -4.519182    -0.826951     0.162555
 H    -5.522115    -1.451880     0.257234
 B    -4.499730     0.957169    -0.014179
 H    -5.486671     1.613594    -0.034499
 N    -0.381009     1.199074    -0.220475
 N    -0.403511    -1.169425     0.126563
 C    -1.753351     0.829448    -0.097579
 C    -1.778423    -0.780270     0.084708
 C     0.385430    -0.036377    -0.437279
 H     1.353922     0.033021     0.060142
 H     0.551437    -0.196622    -1.512906
 C    -0.085846    -2.457295    -0.498115
 H    -0.263186    -2.428927    -1.587240
 H    -0.768501    -3.200108    -0.071645
 C     1.353117    -2.829737    -0.213769
 C     1.865071    -2.717756     1.087096
 H     1.219160    -2.343334     1.876728
 C     3.188642    -3.067356     1.355715
 H     3.577129    -2.975584     2.366219
 C     4.014210    -3.535946     0.327973
 H     5.044902    -3.807350     0.537810
 C     3.510303    -3.648044    -0.969512
 H     4.147570    -4.004856    -1.773661
 C     2.185934    -3.290911    -1.238674
 H     1.796956    -3.369018    -2.251353
 C     0.161613     2.112874     0.799150
 H     0.261623     1.624754     1.779884
 H    -0.563952     2.924699     0.907998
 C     1.499399     2.657861     0.350669
 C     2.588960     2.671650     1.228465
 H     2.472623     2.271438     2.233194
 C     3.821067     3.192665     0.822332
 H     4.659891     3.196933     1.512603
 C     3.973489     3.696608    -0.470819
 H     4.931343     4.097103    -0.790466
 C     2.889926     3.678156    -1.356005
 H     3.005065     4.066037    -2.364316
 C     1.660027     3.161794    -0.948167
 H     0.817459     3.132291    -1.633445
