   68
scf done: -1614.051605
 C     1.534598    -0.000057     1.120676
 C     2.405379    -0.000272     2.219054
 C     3.831509    -0.000416     2.063063
 C     4.412520    -0.000205     0.793961
 C     3.512642     0.000219    -0.289586
 C     4.158525    -0.000214    -1.541716
 C     3.325935    -0.000433    -2.662752
 C     1.898910    -0.000237    -2.518129
 C     1.300017     0.000040    -1.260511
 C     2.144598     0.000193    -0.142124
 C     5.742694    -0.000825     0.162259
 C     5.592870    -0.000845    -1.207062
 C     0.002379    -0.000079     0.974786
 C    -0.605596     1.267368     1.609840
 C     0.215187     2.226103     2.234903
 C    -0.278797     3.426671     2.745937
 C    -1.635790     3.730959     2.622418
 C    -2.470214     2.805516     2.008310
 C    -1.994837     1.565533     1.527783
 C    -3.003310     0.675906     0.977408
 C    -3.003451    -0.675606     0.977390
 C    -1.995073    -1.565512     1.527453
 C    -2.470573    -2.805612     2.007591
 C    -1.636269    -3.731326     2.621420
 C    -0.279229    -3.427230     2.745032
 C     0.214886    -2.226598     2.234321
 C    -0.605781    -1.267554     1.609532
 C    -0.171566     0.000106    -0.820739
 C    -0.739410     1.353012    -1.298754
 C     0.096066     2.461552    -1.036590
 C    -0.238013     3.775454    -1.354843
 C    -1.454377     4.041416    -1.985569
 C    -2.292063     2.973911    -2.272609
 C    -1.972757     1.629621    -1.950740
 C    -2.988704     0.675422    -2.357725
 C    -2.989101    -0.674162    -2.357499
 C    -1.973565    -1.628762    -1.950449
 C    -2.293465    -2.972941    -2.272081
 C    -1.455987    -4.040715    -1.985371
 C    -0.239195    -3.775138    -1.355353
 C     0.095444    -2.461318    -1.037265
 C    -0.739876    -1.352547    -1.298930
 H     2.007377    -0.000414     3.236087
 H     4.441985    -0.000750     2.969474
 H     3.737398    -0.000798    -3.675138
 H     1.284659    -0.000389    -3.420406
 H     6.695071    -0.001194     0.690196
 H     1.286698     2.053471     2.296993
 H     0.408998     4.133042     3.214626
 H    -2.036368     4.675089     2.995542
 H    -3.536558     3.019405     1.905531
 H    -3.907560     1.171151     0.613204
 H    -3.907842    -1.170633     0.613231
 H    -3.536942    -3.019352     1.904725
 H    -2.036927    -4.675556     2.994210
 H     0.408432    -4.133793     3.213626
 H     1.286423    -2.054133     2.296371
 H     1.053479     2.292856    -0.547613
 H     0.453204     4.581972    -1.105283
 H    -1.743371     5.059961    -2.250054
 H    -3.243908     3.160366    -2.775373
 H    -3.890347     1.144744    -2.762449
 H    -3.891039    -1.143105    -2.761996
 H    -3.245536    -3.159122    -2.774510
 H    -1.745543    -5.059190    -2.249525
 H     0.451918    -4.581869    -1.106201
 H     1.053177    -2.292889    -0.548783
 H     6.410144    -0.001247    -1.926922
