   66
scf done: -2157.045749
Cl    -1.986146     3.086296    -0.773872
Cl    -1.986250    -3.086145     0.773958
 C    -0.729283    -0.684305     0.200623
 C     0.793815    -0.730592     0.418216
 C     0.793879     0.730547    -0.418162
 C    -0.729235     0.684400    -0.200537
 C    -1.908100     1.382847    -0.350740
 C    -3.160350     0.702593    -0.161212
 C    -4.410577     1.362519    -0.305348
 C    -5.605441     0.688595    -0.152966
 C    -5.605489    -0.688224     0.152944
 C    -4.410673    -1.362225     0.305367
 C    -3.160396    -0.702386     0.161256
 C    -1.908176    -1.382709     0.350791
 C     1.609770    -1.877934    -0.175919
 C     1.000598    -2.997513    -0.767865
 C     1.749919    -4.066552    -1.270504
 C     3.143763    -4.047957    -1.200681
 C     3.774435    -2.936812    -0.634596
 C     3.018819    -1.872208    -0.135709
 C     1.029608    -0.664964     2.033553
 C     0.108010     0.355398     2.736241
 C     0.688576    -2.048035     2.630658
 C     2.473364    -0.364613     2.494680
 C     1.610001     1.877803     0.175939
 C     1.000998     2.997546     0.767751
 C     1.750480     4.066532     1.270262
 C     3.144323     4.047720     1.200451
 C     3.774828     2.936411     0.634511
 C     3.019050     1.871857     0.135755
 C     1.029614     0.664910    -2.033515
 C     0.107766    -0.355273    -2.736138
 C     0.688846     2.048052    -2.630571
 C     2.473280     0.364288    -2.494731
 H    -4.415681     2.423759    -0.546648
 H    -6.548538     1.224407    -0.271477
 H    -6.548625    -1.223976     0.271421
 H    -4.415857    -2.423462     0.546677
 H    -0.082663    -3.041749    -0.844528
 H     1.232263    -4.916418    -1.719528
 H     3.731510    -4.881749    -1.588521
 H     4.864093    -2.888903    -0.585082
 H     3.545962    -1.012952     0.272593
 H    -0.956531     0.171151     2.538880
 H     0.258072     0.259773     3.823020
 H     0.340974     1.392172     2.467053
 H     1.259574    -2.859163     2.157666
 H     0.945730    -2.038274     3.701610
 H    -0.377812    -2.285882     2.554057
 H     2.888901     0.558050     2.076356
 H     2.454361    -0.243928     3.589332
 H     3.156191    -1.198205     2.285888
 H    -0.082253     3.041942     0.844422
 H     1.232953     4.916537     1.719172
 H     3.732190     4.881474     1.588187
 H     4.864480     2.888321     0.585033
 H     3.546066     1.012471    -0.272441
 H     0.340411    -1.392079    -2.466795
 H    -0.956734    -0.170691    -2.538847
 H     0.257911    -0.259846    -3.822920
 H    -0.377413     2.286321    -2.553543
 H     1.260351     2.858990    -2.157869
 H     0.945564     2.038120    -3.701629
 H     2.454228     0.243874    -3.589415
 H     3.156340     1.197643    -2.285769
 H     2.888583    -0.558582    -2.076639
