   66
scf done: -2157.030755
Cl     2.931160     2.535996     0.599659
Cl     0.705055    -3.243371    -0.668374
 C     0.443098    -0.536367    -0.328703
 C    -1.012993    -0.225732     0.019972
 C    -0.464022     1.413817     0.062879
 C     0.925787     0.762641    -0.036124
 C     2.279506     1.001988     0.058625
 C     3.206042    -0.051549    -0.251873
 C     4.612707     0.149344    -0.248051
 C     5.487946    -0.874294    -0.550811
 C     4.995920    -2.159135    -0.867048
 C     3.636264    -2.395984    -0.874057
 C     2.704396    -1.366695    -0.574869
 C     1.289287    -1.598528    -0.549342
 C    -1.324896    -0.978571     1.359395
 C    -0.286168    -1.449013     2.190964
 C    -0.540063    -2.180528     3.353125
 C    -1.850574    -2.479778     3.731316
 C    -2.895616    -2.040356     2.918513
 C    -2.634916    -1.315350     1.751258
 C    -2.116602    -0.579722    -0.978284
 C    -1.926499    -1.548527    -1.976811
 C    -2.954631    -1.902677    -2.854786
 C    -4.209989    -1.297189    -2.758229
 C    -4.420992    -0.333342    -1.769090
 C    -3.389063     0.015539    -0.892165
 C    -0.809388     2.249656     1.387916
 C    -2.320519     2.204388     1.704069
 C    -0.414523     3.749399     1.362858
 C    -0.070789     1.700925     2.633074
 C    -0.673624     2.216639    -1.348680
 C    -0.582960     1.327946    -2.618925
 C    -2.009612     2.980443    -1.480802
 C     0.479749     3.234122    -1.564796
 H     4.996942     1.139174    -0.006639
 H     6.562804    -0.686312    -0.546257
 H     5.688973    -2.966749    -1.107931
 H     3.255356    -3.387054    -1.116739
 H     0.751242    -1.229529     1.944755
 H     0.300609    -2.519457     3.961471
 H    -2.051790    -3.055494     4.636403
 H    -3.930386    -2.272677     3.177892
 H    -3.482224    -1.036087     1.129314
 H    -0.953313    -2.017749    -2.095098
 H    -2.765289    -2.654705    -3.623251
 H    -5.012705    -1.570824    -3.445172
 H    -5.392792     0.155473    -1.675198
 H    -3.580685     0.768745    -0.128915
 H    -2.673773     1.180510     1.876396
 H    -2.933710     2.667233     0.920149
 H    -2.505070     2.766125     2.633608
 H    -0.894938     4.333820     0.571082
 H    -0.736637     4.189112     2.319975
 H     0.671647     3.890613     1.297086
 H    -0.241788     2.391781     3.473655
 H     1.015340     1.643997     2.476382
 H    -0.429120     0.718228     2.947780
 H     0.239589     0.600603    -2.577756
 H    -1.510006     0.793244    -2.841074
 H    -0.381668     1.990533    -3.475255
 H    -2.877261     2.314190    -1.421065
 H    -2.035777     3.446885    -2.478771
 H    -2.136647     3.787568    -0.750173
 H     0.226112     3.851896    -2.440493
 H     0.666971     3.912617    -0.731328
 H     1.420760     2.718585    -1.799769
