   66
scf done: -1139.278754
 N     1.388789    -0.250223     0.825098
 C     2.663995    -0.730370     0.343665
 C     0.861072     0.996954     0.490352
 C     2.727819    -1.582778    -0.777086
 C     3.987156    -2.038585    -1.200476
 H     4.034488    -2.693333    -2.075262
 C     3.839386    -0.416092     1.070236
 C     5.065192    -0.911541     0.616866
 H     5.969597    -0.665851     1.180038
 C     5.167240    -1.707852    -0.532584
 C     1.508264    -2.068424    -1.517496
 H     0.584807    -1.812568    -0.986243
 H     1.551884    -3.161200    -1.643550
 H     1.454146    -1.630733    -2.527447
 B     0.660258     1.389715    -1.177380
 H     1.111125     0.643280    -1.987961
 B     0.823511     2.345671     1.493691
 H     1.352429     2.220951     2.556303
 C     6.508632    -2.188869    -1.024456
 H     7.161723    -2.486297    -0.190480
 H     7.034406    -1.394533    -1.579365
 H     6.405454    -3.049075    -1.701045
 C     3.798377     0.415353     2.327318
 H     3.487398     1.449890     2.123684
 H     4.790514     0.447926     2.797648
 H     3.095171     0.012292     3.074670
 B     1.705987     2.330673    -0.051159
 H     2.889189     2.206536    -0.137344
 B     0.714609     3.173260    -1.250142
 H     1.237023     3.741599    -2.162290
 B     0.765581     3.767089     0.436483
 H     1.329209     4.772135     0.753998
 H     1.204871    -0.484020     1.799447
 N    -1.388687    -0.250385    -0.825074
 C    -2.663892    -0.730541    -0.343666
 C    -0.861093     0.996846    -0.490369
 C    -2.727780    -1.582793     0.777200
 C    -3.987144    -2.038533     1.200578
 H    -4.034533    -2.693157     2.075455
 C    -3.839236    -0.416300    -1.070313
 C    -5.065075    -0.911681    -0.616951
 H    -5.969449    -0.666026    -1.180187
 C    -5.167190    -1.707868     0.532578
 C    -1.508271    -2.068269     1.517797
 H    -0.584778    -1.812470     0.986579
 H    -1.551866    -3.161025     1.644035
 H    -1.454252    -1.630401     2.527677
 B    -0.660323     1.389682     1.177350
 H    -1.111109     0.643218     1.987952
 B    -0.823681     2.345530    -1.493753
 H    -1.352592     2.220712    -2.556359
 C    -6.508613    -2.188784     1.024462
 H    -7.161832    -2.485905     0.190479
 H    -7.034202    -1.394494     1.579615
 H    -6.405512    -3.049166     1.700841
 C    -3.798131     0.415067    -2.327447
 H    -3.487097     1.449598    -2.123866
 H    -4.790245     0.447667    -2.797823
 H    -3.094912     0.011918    -3.074740
 B    -1.706154     2.330489     0.051096
 H    -2.889343     2.206225     0.137284
 B    -0.714869     3.173225     1.250051
 H    -1.237346     3.741538     2.162179
 B    -0.765906     3.766990    -0.436594
 H    -1.329644     4.771964    -0.754143
 H    -1.204739    -0.484208    -1.799410
