   58
scf done: -1977.563517
 I     3.548085     1.697762    -0.171294
 I    -3.545349     1.703174     0.171246
 C     0.856936    -0.840431     0.045386
 C    -0.858122    -0.839124    -0.045382
 C    -0.704544     0.663903     0.036077
 C    -1.432842     1.823445     0.078441
 C    -0.724755     3.072604     0.043891
 C    -1.391235     4.325852     0.085241
 C    -0.700031     5.519925     0.043272
 C     0.708615     5.518842    -0.043122
 C     1.397981     4.323709    -0.085167
 C     0.729575     3.071486    -0.043873
 C     1.435738     1.821241    -0.078472
 C     0.705661     0.662812    -0.036125
 C     1.408796    -1.379134     1.351622
 C     1.332035    -0.849169     2.636867
 C     1.924316    -1.549880     3.698154
 C     2.588038    -2.761234     3.468973
 C     2.709978    -3.272158     2.171199
 C     2.135030    -2.566079     1.111899
 C     2.246079    -2.751516    -0.338476
 C     2.948639    -3.705264    -1.078087
 C     3.033776    -3.554941    -2.466940
 C     2.443958    -2.454004    -3.098809
 C     1.722974    -1.504962    -2.359425
 C     1.597510    -1.670151    -0.981421
 C    -1.600021    -1.667627     0.981427
 C    -1.725217    -1.502207     2.359430
 C    -2.447852    -2.449993     3.098818
 C    -3.039526    -3.549944     2.466966
 C    -2.954595    -3.700453     1.078118
 C    -2.250430    -2.747897     0.338497
 C    -2.139081    -2.562659    -1.111888
 C    -2.715276    -3.267762    -2.171165
 C    -2.592546    -2.757032    -3.468938
 C    -1.926837    -1.546765    -3.698131
 C    -1.333337    -0.847054    -2.636871
 C    -1.410879    -1.376927    -1.351630
 H    -2.479869     4.327810     0.150962
 H    -1.246071     6.463931     0.077074
 H     1.256112     6.462005    -0.076866
 H     2.486614     4.323997    -0.150908
 H     0.842859     0.110105     2.817423
 H     1.874091    -1.141299     4.708849
 H     3.039800    -3.297283     4.305601
 H     3.272238    -4.190504     1.990274
 H     3.446460    -4.540245    -0.580891
 H     3.585143    -4.288228    -3.058344
 H     2.548454    -2.327330    -4.177641
 H     1.288184    -0.643512    -2.863531
 H    -1.288984    -0.641486     2.863535
 H    -2.552192    -2.323085     4.177638
 H    -3.592172    -4.282262     3.058376
 H    -3.453810    -4.534599     0.580920
 H    -3.279059    -4.185167    -1.990210
 H    -3.045235    -3.292310    -4.305559
 H    -1.876007    -1.138244    -4.708820
 H    -0.842595     0.111414    -2.817448
