   62
scf done: -1979.910090
 I     3.547867     1.559909    -0.234651
 I    -3.548580     1.558321     0.235419
 C     0.841828    -1.039160    -0.176305
 C    -0.841408    -1.039647     0.176090
 C    -0.698606     0.477231     0.101371
 C    -1.428452     1.639837     0.128964
 C    -0.726523     2.890626     0.051693
 C    -1.393969     4.143944     0.093048
 C    -0.705203     5.338986     0.046564
 C     0.702810     5.339321    -0.044721
 C     1.392122     4.144603    -0.091416
 C     0.725252     2.890971    -0.050235
 C     1.427730     1.640518    -0.127860
 C     0.698409     0.477583    -0.100486
 C     1.124715    -1.590819    -1.565525
 C     1.664908    -0.799790    -2.589934
 C     1.918536    -1.334872    -3.858231
 C     1.631572    -2.673912    -4.129277
 C     1.080245    -3.473110    -3.122006
 C     0.827112    -2.935313    -1.859402
 C     1.777654    -1.594074     0.901119
 C     1.824026    -0.973908     2.165843
 C     2.674069    -1.436075     3.170461
 C     3.513697    -2.529824     2.935688
 C     3.493395    -3.145433     1.682912
 C     2.638953    -2.681202     0.676797
 C    -1.777015    -1.594105    -0.901772
 C    -1.823631    -0.972954    -2.166010
 C    -2.673490    -1.434658    -3.170984
 C    -3.512680    -2.528949    -2.937108
 C    -3.492117    -3.145549    -1.684849
 C    -2.637858    -2.681763    -0.678345
 C    -1.123989    -1.592519     1.564907
 C    -0.825599    -2.937041     1.857840
 C    -1.078430    -3.475876     3.120059
 C    -1.630203    -2.677715     4.127913
 C    -1.917926    -1.338649     3.857827
 C    -1.664596    -0.802527     2.589905
 H    -2.481592     4.146067     0.169867
 H    -1.252834     6.281996     0.082550
 H     1.250005     6.282589    -0.080574
 H     2.479740     4.147235    -0.168283
 H     1.887125     0.250889    -2.404144
 H     2.340568    -0.694764    -4.635321
 H     1.826976    -3.091396    -5.118625
 H     0.834577    -4.517706    -3.321921
 H     0.372536    -3.566325    -1.093773
 H     1.180734    -0.117711     2.370824
 H     2.680751    -0.935161     4.140225
 H     4.182355    -2.891294     3.719092
 H     4.153514    -3.989964     1.475211
 H     2.662735    -3.164760    -0.298768
 H    -1.180668    -0.116347    -2.370302
 H    -2.680374    -0.932994    -4.140360
 H    -4.181231    -2.890003    -3.720798
 H    -4.151835    -3.990556    -1.477824
 H    -2.661483    -3.166125     0.296823
 H    -0.370681    -3.567260     1.091762
 H    -0.832167    -4.520474     3.319225
 H    -1.825357    -3.096037     5.116955
 H    -2.340300    -0.699321     4.635371
 H    -1.887377     0.248170     2.404893
