   54
scf done: -1305.972375
 C     0.000057     0.650083     0.857318
 C    -0.000121     0.649846    -0.857116
 C     0.000303    -1.909581     0.679595
 C     0.000132    -1.909884    -0.679663
 C    -1.226972    -0.020204     1.455805
 C    -2.305377     0.639179     2.045243
 H    -2.318871     1.730084     2.087578
 C    -3.370968    -0.103107     2.574357
 H    -4.210954     0.415668     3.040016
 C    -3.364283    -1.498111     2.505775
 H    -4.198193    -2.069130     2.918086
 C    -2.290542    -2.170789     1.904717
 H    -2.284504    -3.260068     1.837341
 C    -1.228636    -1.436105     1.384407
 C     1.227360    -0.019970     1.455528
 C     2.305622     0.639638     2.044962
 H     2.318925     1.730552     2.087227
 C     3.371369    -0.102421     2.574087
 H     4.211203     0.416530     3.039820
 C     3.364977    -1.497425     2.505502
 H     4.199004    -2.068270     2.917817
 C     2.291376    -2.170329     1.904439
 H     2.285607    -3.259606     1.836991
 C     1.229312    -1.435877     1.384140
 C    -1.227329    -0.020409    -1.455273
 C    -2.305860     0.639100    -2.044381
 H    -2.319398     1.730014    -2.086417
 C    -3.371470    -0.103075    -2.573593
 H    -4.211585     0.415784    -3.038925
 C    -3.364705    -1.498102    -2.505464
 H    -4.198530    -2.069026    -2.918071
 C    -2.290896    -2.170911    -1.904679
 H    -2.284863    -3.260205    -1.837508
 C    -1.229033    -1.436336    -1.384161
 C     1.227062    -0.020202    -1.455546
 C     2.305369     0.639532    -2.044812
 H     2.318632     1.730450    -2.086896
 C     3.371094    -0.102410    -2.574117
 H     4.211035     0.416616    -3.039563
 C     3.364636    -1.497438    -2.505942
 H     4.198592    -2.068200    -2.918523
 C     2.291034    -2.170469    -1.905043
 H     2.285213    -3.259769    -1.837960
 C     1.229050    -1.436139    -1.384423
 C    -0.000066     2.156497     0.697586
 C    -0.000208     3.335439     1.439107
 H    -0.000099     3.348615     2.530857
 C    -0.000522     4.532539     0.701565
 H    -0.000623     5.487658     1.230554
 C    -0.000713     4.532338    -0.702474
 H    -0.000964     5.487301    -1.231744
 C    -0.000604     3.334995    -1.439629
 H    -0.000776     3.347756    -2.531378
 C    -0.000257     2.156316    -0.697700
