   74
scf done: -1243.133326
 C    -0.627234    -0.029524    -0.121315
 C    -0.972295    -1.541940    -0.411947
 C     1.044341     0.185641     0.178497
 C    -2.402918    -1.739443    -0.971733
 C     1.215086     1.319575     1.229570
 C    -1.708623     0.383347     1.004472
 C     1.839913     0.594222    -1.124891
 C    -1.758912     1.893293     1.352153
 C    -2.454698     0.579816    -1.873410
 C     2.769852    -1.727845    -1.560117
 C    -1.026279     0.873889    -1.352425
 C    -3.169605     0.123423     0.440631
 C    -1.582710    -0.507721     2.258533
 C     3.286276     1.065007    -0.784375
 C     3.370361    -0.576151     1.069512
 C    -0.970954     2.385157    -1.028867
 C    -3.421207    -1.350401     0.114228
 C     1.912261    -1.034418     0.722582
 C    -3.473731     0.983699    -0.794538
 C     4.093627    -0.115746    -0.213819
 C     2.656996     1.743478     1.525430
 C     1.958167    -0.559697    -2.145131
 C     4.189307    -1.246970    -1.239943
 C     2.111033    -2.215738    -0.259247
 C    -1.852947    -1.988893     1.925324
 C     3.410286     0.547494     2.103823
 C    -1.972319     2.748918     0.083849
 C     3.299840     2.221293     0.219208
 C    -2.616880    -0.897808    -2.229882
 C    -3.380455     2.473183    -0.457305
 C    -0.878364    -2.452866     0.836401
 C    -3.275645    -2.180688     1.390697
 H    -0.351653     0.664517    -2.194569
 H     2.807501    -2.555239    -2.288836
 H     2.632679     2.569336     2.257316
 H     2.936415     0.223163     3.047083
 H    -1.886241    -1.184947    -3.007232
 H     0.129311    -2.507103     1.252336
 H    -4.494159     0.744434    -1.147330
 H    -2.611738     1.198388    -2.776374
 H     0.966736    -0.910836    -2.469496
 H    -1.243272     2.942555    -1.943531
 H     4.695575    -0.888598    -2.153755
 H     4.793068    -2.079703    -0.838515
 H    -3.855241     0.419679     1.258446
 H    -2.626435     2.044403     2.021431
 H    -4.143782     2.739418     0.294629
 H     4.337632     2.556883     0.391053
 H     0.043280     2.717041    -0.773411
 H     1.355512     1.450214    -1.613855
 H     2.743225     3.087756    -0.180224
 H    -3.621778    -1.081575    -2.649415
 H    -0.292650    -1.911957    -1.191372
 H     2.462570    -0.180097    -3.051930
 H     1.480704    -1.392078     1.671081
 H     3.750437     1.394632    -1.732568
 H    -3.460367    -3.250205     1.188007
 H    -4.025771    -1.855674     2.133234
 H    -0.583990    -0.408555     2.714362
 H    -2.516371    -2.811054    -1.219209
 H     4.457143     0.808298     2.339494
 H     0.747334     1.005867     2.175137
 H    -1.707834    -2.597266     2.834365
 H    -3.578402     3.085629    -1.354688
 H     0.687242     2.216483     0.897214
 H     2.774300    -2.953823     0.227164
 H     1.186807    -2.753940    -0.485924
 H    -0.894126     2.233593     1.927862
 H    -1.869515     3.817296     0.339378
 H    -4.445703    -1.457670    -0.288269
 H     3.888441    -1.464269     1.475611
 H    -1.137450    -3.482484     0.529091
 H    -2.307177    -0.159851     3.018016
 H     5.108329     0.233824     0.052399
