   23
scf done:  -739.277332
 C     7.882706     5.696796     9.889671
 C     8.071934     6.983067    10.376673
 C     7.049289     7.925694    10.235832
 C     5.855856     7.551009     9.606102
 C     5.714910     6.255028     9.136737
 N     6.720136     5.354110     9.283267
 C     6.529242     3.983298     8.768917
 C     7.562946     2.841087     8.851262
 C     5.423065     2.994883     9.216526
 C     6.246590     3.601583     7.294018
 C     6.292963     2.292493     8.134129
 I     6.029174     0.323152     7.399661
 H     8.632951     4.912201     9.963617
 H     9.015396     7.233260    10.859986
 H     7.178802     8.940943    10.611700
 H     5.035029     8.255133     9.476492
 H     4.817679     5.893104     8.637988
 H     7.769011     2.421609     9.845088
 H     8.462044     2.932189     8.227212
 H     4.391138     3.231402     8.924979
 H     5.498312     2.599507    10.237498
 H     7.065326     3.753952     6.579299
 H     5.265302     3.875399     6.884243
