   28
scf done:  -442.202113
 B     0.376670     6.652477     5.268897
 H     0.859434     6.075244     6.196579
 B    -1.988893     7.597654     3.931406
 H    -3.172521     7.652775     3.778663
 B    -1.207027     6.167696     4.631976
 H    -1.838253     5.213425     4.976058
 B    -0.939484     8.113727     2.575964
 H    -1.366827     8.471399     1.518894
 B     0.279617     5.891710     3.671041
 H     0.636333     4.804330     3.327607
 B     0.559230     8.413043     4.998144
 H     1.177031     9.117831     5.738756
 B     1.405209     7.252123     3.951298
 H     2.574808     7.054635     3.835727
 B     0.621678     8.681814     3.239856
 H     1.237689     9.497001     2.625971
 B    -1.030201     7.752069     5.418584
 H    -1.565324     7.973975     6.463374
 B    -0.894543     8.980007     4.119791
 H    -1.327239    10.089274     4.215605
 C     0.490141     7.158220     2.537724
 C    -1.170896     6.474081     2.977584
 N     1.017684     6.831043     1.290731
 N    -1.720988     5.668924     1.965474
 H    -1.873941     4.711824     2.280566
 H    -2.587065     6.058708     1.595817
 H     0.492173     7.226095     0.513874
 H     1.158604     5.831396     1.161339
