   54
scf done:  -982.224523
 B     1.180302    -1.986017    -0.000000
 B     0.786144    -2.964981     1.459370
 B    -0.984846    -3.111666     1.455839
 B    -1.520243    -2.208445     0.000000
 B     1.406825    -3.752275    -0.000000
 B     0.016086    -4.463207     0.881984
 B    -1.468332    -3.993379     0.000000
 C    -0.204670    -1.705613     0.977953
 N    -0.351221    -0.462875     1.577120
 C     0.688304     0.050785     2.473318
 H     1.630414     0.087920     1.903273
 H     0.861624    -0.628766     3.327813
 C     0.330645     1.427333     2.988279
 C     0.568577     1.758465     4.329876
 H     0.985949     1.005980     5.003487
 C     0.276823     3.038225     4.811088
 H     0.468274     3.279941     5.858103
 C    -0.269669     4.000465     3.956713
 H    -0.503804     4.998118     4.332262
 C    -0.519787     3.675868     2.619098
 H    -0.948137     4.421406     1.946332
 C    -0.219490     2.399011     2.138488
 H    -0.414700     2.139520     1.096707
 H     2.046050    -1.165832    -0.000000
 H    -2.469706    -4.645267     0.000000
 H     1.425964    -2.796434     2.452759
 H    -2.488882    -1.508298     0.000000
 H     2.497330    -4.240321    -0.000000
 H    -1.638485    -3.023140     2.452060
 H     0.102300    -5.465846     1.526371
 H    -1.290948    -0.316387     1.942581
 B     0.786144    -2.964981    -1.459370
 B    -0.984846    -3.111666    -1.455839
 B     0.016086    -4.463207    -0.881984
 C    -0.204670    -1.705613    -0.977953
 N    -0.351221    -0.462875    -1.577120
 C     0.688304     0.050785    -2.473318
 H     1.630414     0.087920    -1.903273
 H     0.861624    -0.628766    -3.327813
 C     0.330645     1.427333    -2.988279
 C     0.568577     1.758465    -4.329876
 H     0.985949     1.005980    -5.003487
 C     0.276823     3.038225    -4.811088
 H     0.468274     3.279941    -5.858103
 C    -0.269669     4.000465    -3.956713
 H    -0.503804     4.998118    -4.332262
 C    -0.519787     3.675868    -2.619098
 H    -0.948137     4.421406    -1.946332
 C    -0.219490     2.399011    -2.138488
 H    -0.414700     2.139520    -1.096707
 H     1.425964    -2.796434    -2.452759
 H    -1.638485    -3.023140    -2.452060
 H     0.102300    -5.465846    -1.526371
 H    -1.290948    -0.316387    -1.942581
