   55
scf done: -1020.267104
 B    -2.278098    -0.033964    -1.459277
 H    -1.512512    -0.103779    -2.367858
 B    -3.071679     1.439912    -0.939310
 H    -2.908353     2.432655    -1.579261
 B    -2.977525     1.525092     0.846256
 H    -2.796330     2.574993     1.382248
 B    -2.162871     0.091953     1.477039
 H    -1.325913     0.115658     2.320880
 B    -3.040517    -1.353769     1.011933
 H    -2.879170    -2.355353     1.639769
 B    -3.097513    -1.434020    -0.778045
 H    -2.982692    -2.487030    -1.326495
 B    -4.017559    -0.011425    -1.371717
 H    -4.657482    -0.065044    -2.379036
 B    -3.897725     0.138101     1.516500
 H    -4.460446     0.214331     2.567510
 B    -4.496574    -0.827503     0.139915
 H    -5.507176    -1.460086     0.213217
 B    -4.470527     0.965158     0.043462
 H    -5.459926     1.634247     0.059001
 N    -0.342270     1.194544    -0.175690
 N    -0.374699    -1.186965     0.058295
 C    -1.714474     0.827586    -0.063176
 C    -1.745518    -0.788324     0.044498
 C     0.424636    -0.031602    -0.432119
 H     1.390868     0.014328     0.088136
 H     0.620876    -0.145777    -1.516352
 C    -0.051163    -2.451979    -0.599322
 H    -0.168064    -2.377864    -1.700899
 H    -0.782113    -3.196886    -0.247756
 C     1.353585    -2.907782    -0.261766
 C     1.806414    -2.895817     1.067193
 H     1.143756    -2.519885     1.849473
 C     3.089491    -3.348896     1.381340
 H     3.430636    -3.334402     2.418252
 C     3.935283    -3.823709     0.371946
 H     4.937642    -4.178290     0.618555
 C     3.491918    -3.837654    -0.953231
 H     4.146988    -4.200833    -1.747186
 C     2.208909    -3.377112    -1.267251
 H     1.867159    -3.382668    -2.305338
 C     0.210116     2.106347     0.832932
 H     0.371265     1.602166     1.805116
 H    -0.546135     2.887868     1.000343
 C     1.502734     2.739208     0.361284
 C     2.597010     2.840886     1.230882
 H     2.522370     2.428302     2.240285
 C     3.779270     3.465033     0.818952
 H     4.623259     3.536212     1.507456
 C     3.880778     3.986567    -0.473464
 H     4.803853     4.469513    -0.799026
 C     2.794835     3.881933    -1.350806
 H     2.868935     4.285470    -2.362441
 C     1.613506     3.263394    -0.936446
 H     0.766448     3.172953    -1.619270
