   50
scf done:  -979.817261
 B     5.738340     3.505142     3.606501
 B     4.202348     4.403028     3.620908
 B     3.591901     4.403025     5.287572
 B     5.744220     5.277107     3.590442
 B     4.410576     5.838631     4.642313
 C     4.437436     3.064428     4.652143
 C     2.701142     1.660317     4.016321
 H     2.070133     2.535376     3.785502
 N     3.902595     1.782721     4.456169
 C     2.090487     0.348613     3.792575
 C     0.771577     0.282077     3.310091
 H     0.225331     1.207164     3.110515
 C     0.163364    -0.954689     3.087286
 H    -0.860442    -0.999464     2.712765
 C     0.870049    -2.133529     3.345469
 H     0.396494    -3.101546     3.172002
 C     2.186219    -2.074745     3.826918
 H     2.734029    -2.997226     4.027014
 C     2.795466    -0.843071     4.050116
 H     3.817659    -0.771436     4.424026
 H     2.431594     4.235703     5.513293
 H     6.044295     2.716484     2.771228
 H     3.462308     4.235646     2.699187
 H     6.103701     5.855878     2.609090
 H     3.800191     6.841115     4.418764
 B     4.755171     3.505144     6.290682
 B     6.291162     4.403032     6.276274
 B     6.901609     4.403026     4.609610
 B     4.749289     5.277109     6.306738
 B     6.082933     5.838633     5.254867
 C     6.056076     3.064429     5.245042
 C     7.792371     1.660321     5.880866
 H     8.423378     2.535381     6.111685
 N     6.590918     1.782723     5.441017
 C     8.403026     0.348618     6.104616
 C     9.721936     0.282083     6.587102
 H    10.268181     1.207172     6.786677
 C    10.330149    -0.954681     6.809910
 H    11.353954    -0.999455     7.184433
 C     9.623466    -2.133522     6.551729
 H    10.097020    -3.101538     6.725199
 C     8.307296    -2.074741     6.070278
 H     7.759487    -2.997223     5.870183
 C     7.698048    -0.843067     5.847076
 H     6.675856    -0.771434     5.473165
 H     8.061916     4.235704     4.383890
 H     4.449217     2.716487     7.125957
 H     7.031202     4.235652     7.197996
 H     4.389808     5.855882     7.288089
 H     6.693317     6.841117     5.478413
