   68
FINAL HEAT OF FORMATION =  -252.640172
 C     9.114931    11.513366    15.367579
 C     8.128586    12.476329    15.680874
 C     6.998938    12.171791    16.550640
 C     6.857494    10.881372    17.114239
 C     7.872873     9.934996    16.775452
 C     7.668957     8.654506    17.376896
 C     8.635691     7.661799    17.087007
 C     9.766299     7.966054    16.216549
 C     9.923493     9.242966    15.647771
 C     8.951225    10.227426    15.944489
 C     5.927932    10.123444    18.013743
 C     6.405311     8.815315    18.167602
 C    10.394278    11.554193    14.493905
 C    11.420063    12.568952    15.058116
 C    11.119345    13.330530    16.223010
 C    12.079672    14.146472    16.865301
 C    13.406139    14.202055    16.368247
 C    13.723918    13.466305    15.207584
 C    12.747957    12.682326    14.516417
 C    13.217327    12.013932    13.293740
 C    12.487291    11.620284    12.205666
 C    11.042251    11.763016    11.974219
 C    10.635131    11.801906    10.603954
 C     9.287472    11.983563    10.229437
 C     8.311697    12.117588    11.249046
 C     8.693848    12.024689    12.607668
 C    10.045675    11.828710    13.009597
 C    11.012862     9.816595    14.706632
 C    12.328900     9.850104    15.524414
 C    12.175229    10.367371    16.847081
 C    13.254983    10.579250    17.729254
 C    14.568969    10.242583    17.317105
 C    14.744890     9.691582    16.033966
 C    13.656649     9.478987    15.120407
 C    14.071982     8.887494    13.841414
 C    13.340530     8.494804    12.755990
 C    11.893611     8.532478    12.504345
 C    11.515951     7.957614    11.243007
 C    10.180166     7.885617    10.805342
 C     9.165183     8.383200    11.660885
 C     9.519565     8.941918    12.906411
 C    10.868972     9.066529    13.358071
 H     8.195662    13.485120    15.269855
 H     6.275060    12.965566    16.748940
 H     8.560594     6.654263    17.502841
 H    10.494741     7.179273    16.012099
 H     5.026307    10.523684    18.474286
 H    10.134593    13.255373    16.673753
 H    11.798175    14.703954    17.761354
 H    14.169446    14.798806    16.871238
 H    14.738783    13.496293    14.804859
 H    14.301781    11.891545    13.228323
 H    13.047362    11.215248    11.358572
 H    11.404619    11.699228     9.835584
 H     9.006009    12.017592     9.175223
 H     7.258932    12.260113    10.995452
 H     7.910328    12.058324    13.358352
 H    11.181982    10.636473    17.194420
 H    13.069054    11.010917    18.714197
 H    15.424231    10.399428    17.976786
 H    15.746966     9.405982    15.705341
 H    15.151717     8.721751    13.768006
 H    13.914941     8.057832    11.932708
 H    12.311065     7.560824    10.607349
 H     9.936056     7.451809     9.834020
 H     8.115437     8.350914    11.364185
 H     8.717430     9.314205    13.537004
 H     5.932041     8.039335    18.767090
