   66
FINAL HEAT OF FORMATION =  -241.381557
 C     8.142680    12.032292    17.199561
 C     7.970552    11.413679    18.452262
 C     7.452151    11.736310    20.952609
 H     8.379465    11.420916    16.325785
 H     8.072160    10.330884    18.553840
 H     7.531139    10.667524    21.163405
 C     7.712701    14.265616    18.133231
 C     8.015630    13.458939    17.029653
 C     7.658049    12.215114    19.607858
 C     7.151106    12.645832    21.984947
 C     7.038982    14.064129    21.742891
 C     7.235333    14.542632    20.447918
 C     7.539305    13.635126    19.399974
 C     7.524909    15.801360    18.218064
 C     6.327962    16.256784    17.332360
 C     5.570967    15.310996    16.584561
 C     4.383163    15.658312    15.899388
 C     3.888934    16.985002    15.967517
 C     4.627406    17.942608    16.693328
 C     5.858716    17.616468    17.343610
 C     6.536230    18.734231    18.017551
 C     7.871112    18.882975    18.275472
 C     8.969798    17.963112    17.944845
 C     8.837744    16.536443    17.817159
 C     7.166893    16.010116    19.951669
 C     5.684992    16.450039    20.131839
 C     4.737907    15.488875    19.664234
 C     3.346502    15.716677    19.635974
 C     2.831151    16.945607    20.120048
 C     3.738029    17.894253    20.627935
 C     5.158990    17.679999    20.654176
 C     5.907958    18.802221    21.236174
 C     7.241322    18.951085    21.493159
 C     8.371784    18.038531    21.273691
 C     8.348641    16.747138    20.645961
 H     8.157968    13.892321    16.039058
 H     6.997236    12.271660    22.999879
 H     6.804639    14.743930    22.563431
 H     5.873958    14.268885    16.572100
 H     3.837009    14.889365    15.348500
 H     2.955935    17.263133    15.473620
 H     4.268087    18.972012    16.759181
 H     5.888452    19.578828    18.267035
 H     8.186299    19.834845    18.711142
 H     5.099148    14.536614    19.286806
 H     2.683028    14.950187    19.231650
 H     1.759485    17.152146    20.106848
 H     3.359758    18.838912    21.025761
 H     5.273549    19.645626    21.527509
 H     7.529437    19.897555    21.962064
 H     9.595773    15.038176    20.153829
 C    10.254699    18.569512    17.781894
 C    11.393868    17.821131    17.419474
 C    11.253268    16.423713    17.228513
 C     9.999377    15.804354    17.441073
 C     9.622910    18.551325    21.760854
 C    10.832266    17.838759    21.660366
 C    10.804364    16.548830    21.072575
 C     9.582211    16.029262    20.598109
 H    10.337162    19.648070    17.933635
 H    12.361331    18.310970    17.293584
 H    12.113850    15.811473    16.949941
 H     9.951049    14.723077    17.360801
 H     9.618850    19.538044    22.230013
 H    11.763859    18.269127    22.032152
 H    11.716548    15.958147    20.971618
