  212
scf done:  -561.151792
 C     0.837734     0.001559     0.008386
 C    -0.837734    -0.001559    -0.008386
 C     1.455527     0.338346    -1.403091
 C    -1.455527    -0.338346     1.403091
 C    -1.440316     1.393859    -0.430176
 C     1.440316    -1.393859     0.430176
 C     1.417171     1.066677     1.015161
 C    -1.417171    -1.066677    -1.015161
 C     1.016616     1.104157     2.375973
 C    -1.016616    -1.104157    -2.375973
 C    -1.045603    -1.477185     2.153315
 C     1.045603     1.477185    -2.153315
 C     1.051291    -2.602852    -0.202568
 C    -1.051291     2.602852     0.202568
 C     2.477100     1.921586     0.622680
 C    -2.477100    -1.921586    -0.622680
 C    -2.559206     0.400484     1.886735
 C     2.559206    -0.400484    -1.886735
 C     2.523017    -1.454823     1.343042
 C    -2.523017     1.454823    -1.343042
 C     1.589686     2.006721     3.309452
 C    -1.589686    -2.006721    -3.309452
 C    -1.675792    -1.842136     3.368511
 C     1.675792     1.842136    -3.368511
 C     1.670511    -3.845537     0.094642
 C    -1.670511     3.845537    -0.094642
 C     3.107912     2.815200     1.532151
 C    -3.107912    -2.815200    -1.532151
 C    -3.247806     0.046005     3.083685
 C     3.247806    -0.046005    -3.083685
 C     3.197607    -2.671602     1.640926
 C    -3.197607     2.671602    -1.640926
 C     2.635923     2.871658     2.872340
 C    -2.635923    -2.871658    -2.872340
 C    -2.787019    -1.068924     3.825735
 C     2.787019     1.068924    -3.825735
 C     2.750568    -3.869758     1.022408
 C    -2.750568     3.869758    -1.022408
 H     0.263969     0.413508     2.728337
 H    -0.263969    -0.413508    -2.728337
 H    -0.240218    -2.092032     1.783673
 H     0.240218     2.092032    -1.783673
 H     0.270303    -2.586024    -0.949208
 H    -0.270303     2.586024     0.949208
 H     2.846597     1.882157    -0.395481
 H    -2.846597    -1.882157     0.395481
 H    -2.922393     1.252595     1.324069
 H     2.922393    -1.252595    -1.324069
 H     2.875598    -0.544367     1.814358
 H    -2.875598     0.544367    -1.814358
 C     1.102552     1.957199     4.782488
 C    -1.102552    -1.957199    -4.782488
 C    -1.214894    -3.081595     4.179353
 C     1.214894     3.081595    -4.179353
 C     1.146586    -5.122629    -0.613246
 C    -1.146586     5.122629     0.613246
 C     4.327992     3.634546     1.035453
 C    -4.327992    -3.634546    -1.035453
 C    -4.486135     0.882792     3.494118
 C     4.486135    -0.882792    -3.494118
 C     4.413684    -2.626951     2.601534
 C    -4.413684     2.626951    -2.601534
 H     3.092245     3.561818     3.575955
 H    -3.092245    -3.561818    -3.575955
 H    -3.291544    -1.353316     4.746972
 H     3.291544     1.353316    -4.746972
 H     3.243192    -4.810534     1.250230
 H    -3.243192     4.810534    -1.250230
 C     5.100079    -0.411128    -4.844189
 C    -5.100079     0.411128     4.844189
 C    -5.006803     4.039426    -2.876542
 C     5.006803    -4.039426     2.876542
 C     4.845688     4.637699     2.107225
 C    -4.845688    -4.637699    -2.107225
 C     5.573881    -0.743971    -2.376515
 C    -5.573881     0.743971     2.376515
 C    -5.527845     1.736645    -1.955321
 C     5.527845    -1.736645     1.955321
 C     5.480076     2.629352     0.693983
 C    -5.480076    -2.629352    -0.693983
 C     4.084591    -2.387520    -3.633453
 C    -4.084591     2.387520     3.633453
 C    -3.984761     1.997225    -3.965841
 C     3.984761    -1.997225     3.965841
 C     3.960673     4.439761    -0.253063
 C    -3.960673    -4.439761     0.253063
 C     0.964850     2.679637    -5.669269
 C    -0.964850    -2.679637     5.669269
 C    -1.907012     6.404933     0.167485
 C     1.907012    -6.404933    -0.167485
 C     1.714040     3.097408     5.647981
 C    -1.714040    -3.097408    -5.647981
 C    -0.099748     3.696873    -3.616665
 C     0.099748    -3.696873     3.616665
 C     0.370704     5.302371     0.284007
 C    -0.370704    -5.302371    -0.284007
 C    -0.454233     2.075553     4.843786
 C     0.454233    -2.075553    -4.843786
 C     2.338805     4.168396    -4.120415
 C    -2.338805    -4.168396     4.120415
 C    -1.308047     4.958842     2.159158
 C     1.308047    -4.958842    -2.159158
 C     1.527698     0.582112     5.395423
 C    -1.527698    -0.582112    -5.395423
 H     0.646713     3.563352    -6.249989
 H    -0.646713    -3.563352     6.249989
 H    -1.489268     7.281266     0.691718
 H     1.489268    -7.281266    -0.691718
 H     1.314677     3.035475     6.674606
 H    -1.314677    -3.035475    -6.674606
 H     1.872971     2.272487    -6.142471
 H    -1.872971    -2.272487     6.142471
 H    -2.981368     6.346093     0.411513
 H     2.981368    -6.346093    -0.411513
 H     2.812528     3.019455     5.710609
 H    -2.812528    -3.019455    -5.710609
 H     0.173716     1.914975    -5.738476
 H    -0.173716    -1.914975     5.738476
 H    -1.804579     6.579081    -0.917188
 H     1.804579    -6.579081     0.917188
 H     1.457163     4.090771     5.241847
 H    -1.457163    -4.090771    -5.241847
 H     2.046309     5.055280    -4.710271
 H    -2.046309    -5.055280     4.710271
 H    -0.921215     5.853122     2.679462
 H     0.921215    -5.853122    -2.679462
 H     1.152767     0.491975     6.430571
 H    -1.152767    -0.491975    -6.430571
 H     2.515371     4.486127    -3.078923
 H    -2.515371    -4.486127     3.078923
 H    -0.750297     4.083077     2.523037
 H     0.750297    -4.083077    -2.523037
 H     1.120734    -0.253963     4.805368
 H    -1.120734     0.253963    -4.805368
 H     3.289955     3.783299    -4.524191
 H    -3.289955    -3.783299     4.524191
 H    -2.368956     4.827101     2.431465
 H     2.368956    -4.827101    -2.431465
 H     2.626142     0.484353     5.411869
 H    -2.626142    -0.484353    -5.411869
 H    -0.408898     4.546198    -4.250064
 H     0.408898    -4.546198     4.250064
 H     0.768881     6.193566     0.801807
 H    -0.768881    -6.193566    -0.801807
 H    -0.794498     1.993676     5.891654
 H     0.794498    -1.993676    -5.891654
 H    -0.918819     2.960630    -3.603183
 H     0.918819    -2.960630     3.603183
 H     0.523749     5.434563    -0.801026
 H    -0.523749    -5.434563     0.801026
 H    -0.787633     3.048467     4.447219
 H     0.787633    -3.048467    -4.447219
 H     0.028168     4.072055    -2.589893
 H    -0.028168    -4.072055     2.589893
 H     0.956026     4.428929     0.606317
 H    -0.956026    -4.428929    -0.606317
 H    -0.953103     1.285485     4.263925
 H     0.953103    -1.285485    -4.263925
 H     5.970724    -1.041103    -5.093863
 H    -5.970724     1.041103     5.093863
 H    -5.860487     3.952313    -3.570005
 H     5.860487    -3.952313     3.570005
 H     5.699239     5.205594     1.699611
 H    -5.699239    -5.205594    -1.699611
 H     4.371791    -0.496135    -5.668713
 H    -4.371791     0.496135     5.668713
 H    -4.259869     4.706656    -3.339437
 H     4.259869    -4.706656     3.339437
 H     4.061742     5.359599     2.393370
 H    -4.061742    -5.359599    -2.393370
 H     5.445534     0.635128    -4.789923
 H    -5.445534    -0.635128     4.789923
 H    -5.372039     4.514377    -1.950413
 H     5.372039    -4.514377     1.950413
 H     5.191108     4.119218     3.017361
 H    -5.191108    -4.119218    -3.017361
 H     6.466743    -1.340518    -2.635168
 H    -6.466743     1.340518     2.635168
 H    -6.404049     1.672760    -2.624868
 H     6.404049    -1.672760     2.624868
 H     6.369906     3.174349     0.331597
 H    -6.369906    -3.174349    -0.331597
 H     5.879695     0.310241    -2.260281
 H    -5.879695    -0.310241     2.260281
 H    -5.855385     2.162915    -0.991350
 H     5.855385    -2.162915     0.991350
 H     5.766065     2.047031     1.586948
 H    -5.766065    -2.047031    -1.586948
 H     5.194887    -1.095379    -1.403323
 H    -5.194887     1.095379     1.403323
 H    -5.162987     0.714090    -1.766116
 H     5.162987    -0.714090     1.766116
 H     5.167706     1.918235    -0.088031
 H    -5.167706    -1.918235     0.088031
 H     4.970717    -2.992720    -3.894858
 H    -4.970717     2.992720     3.894858
 H    -4.850503     1.945370    -4.649699
 H     4.850503    -1.945370     4.649699
 H     4.851503     4.972599    -0.629971
 H    -4.851503    -4.972599     0.629971
 H     3.664769    -2.781777    -2.695128
 H    -3.664769     2.781777     2.695128
 H    -3.592527     0.978197    -3.832209
 H     3.592527    -0.978197     3.832209
 H     3.595786     3.779199    -1.054868
 H    -3.595786    -3.779199     1.054868
 H     3.326694    -2.517429    -4.423224
 H    -3.326694     2.517429     4.423224
 H    -3.197120     2.602692    -4.446216
 H     3.197120    -2.602692     4.446216
 H     3.175338     5.182619    -0.040283
 H    -3.175338    -5.182619     0.040283
