   66
FINAL HEAT OF FORMATION =  -229.612109
Cl     9.461297     8.731470     3.457742
Cl     4.313325    10.614837    -0.047948
 C     7.048928    10.599517     0.623096
 C     7.672004    11.923292     0.118367
 C     9.157829    11.264940     0.790337
 C     8.192313    10.203568     1.401511
 C     8.089079     9.161107     2.310616
 C     6.856696     8.399680     2.423804
 C     6.718776     7.271459     3.307007
 C     5.514066     6.560041     3.391732
 C     4.385007     6.952082     2.598392
 C     4.480305     8.049791     1.732379
 C     5.703141     8.798580     1.613647
 C     5.831534     9.955793     0.748979
 C     6.935616    13.092765     0.877961
 C     6.187593    12.838124     2.066554
 C     5.485812    13.867339     2.737867
 C     5.499866    15.194522     2.236072
 C     6.220249    15.463104     1.044897
 C     6.914508    14.424964     0.372232
 C     7.664409    12.240413    -1.385095
 C     6.726380    11.637382    -2.263178
 C     6.705891    11.958552    -3.643326
 C     7.627183    12.898305    -4.176568
 C     8.563634    13.514025    -3.305530
 C     8.573889    13.188441    -1.926110
 C     9.967176    12.216675     1.810646
 C    10.268188    13.606952     1.160776
 C    11.339999    11.646261     2.318625
 C     9.162752    12.490184     3.129534
 C    10.074494    10.448382    -0.311057
 C     9.254956     9.758755    -1.464333
 C    11.166279    11.306536    -1.031240
 C    10.791899     9.233805     0.386566
 H     7.574512     6.972689     3.909465
 H     5.437017     5.704169     4.064897
 H     3.448873     6.395019     2.667823
 H     3.624477     8.351932     1.131254
 H     6.158179    11.839469     2.495260
 H     4.928925    13.627143     3.646129
 H     4.956702    15.990088     2.750251
 H     6.233440    16.471130     0.624201
 H     7.416195    14.667249    -0.559960
 H     6.028475    10.895915    -1.886415
 H     5.977879    11.471712    -4.296031
 H     7.615827    13.143765    -5.240540
 H     9.281599    14.240358    -3.692964
 H     9.298867    13.670459    -1.275160
 H     9.344637    14.129125     0.883711
 H    10.917124    13.525723     0.278682
 H    10.790433    14.236242     1.901473
 H    12.060041    11.435343     1.520284
 H    11.791515    12.413753     2.970520
 H    11.203530    10.740395     2.923503
 H     9.837508    12.973756     3.856014
 H     8.796785    11.558841     3.585769
 H     8.314158    13.160137     2.973048
 H     8.327517     9.289169    -1.106061
 H     9.006435    10.445506    -2.278050
 H     9.886801     8.960281    -1.888749
 H    10.727942    12.137377    -1.595083
 H    11.681109    10.655002    -1.758448
 H    11.929889    11.703950    -0.351624
 H    11.522732     8.816170    -0.326643
 H    11.324506     9.484479     1.304704
 H    10.069899     8.438108     0.620387
