   66
FINAL HEAT OF FORMATION =  -229.628232
Cl    14.013808     3.472327     8.218375
Cl    20.178291     5.578859     8.832784
 C    18.184097     3.592713     8.495052
 C    18.801129     2.193133     8.197911
 C    17.220040     1.621254     8.455149
 C    16.822640     3.125956     8.379755
 C    15.765988     4.020190     8.376700
 C    16.005138     5.444723     8.527683
 C    14.941470     6.414048     8.534653
 C    15.205471     7.780068     8.704301
 C    16.553342     8.237821     8.875714
 C    17.614308     7.321944     8.872546
 C    17.381470     5.912383     8.699472
 C    18.458343     4.938405     8.668447
 C    19.865670     1.642073     9.150697
 C    20.359796     2.420675    10.230162
 C    21.334211     1.906212    11.123368
 C    21.840995     0.592644    10.950086
 C    21.354360    -0.196280     9.873526
 C    20.380677     0.325030     8.989843
 C    19.352884     2.238796     6.646643
 C    18.537135     3.238139     5.758000
 C    20.832663     2.750892     6.691008
 C    19.367952     0.891257     5.847723
 C    16.681857     0.664702     7.387355
 C    15.762668     1.107373     6.400070
 C    15.275749     0.227029     5.400106
 C    15.699450    -1.126465     5.370533
 C    16.618988    -1.581353     6.353258
 C    17.100540    -0.694921     7.344740
 C    16.832984     1.105053     9.970703
 C    16.896197     2.263137    11.023652
 C    15.353826     0.591337     9.926488
 C    17.693187    -0.054811    10.578456
 H    13.917928     6.066965     8.408171
 H    14.380882     8.495293     8.706223
 H    16.756474     9.302067     9.008448
 H    18.637345     7.670507     8.999054
 H    19.987398     3.430120    10.384546
 H    21.691537     2.530078    11.945554
 H    22.591015     0.192474    11.635405
 H    21.723587    -1.214072     9.728463
 H    19.999388    -0.316984     8.200948
 H    18.654388     4.281211     6.083828
 H    18.914118     3.165688     4.723958
 H    17.465990     2.996802     5.739238
 H    21.509490     1.992038     7.109595
 H    21.159693     2.972649     5.660730
 H    20.937837     3.666081     7.285993
 H    18.372864     0.603567     5.492793
 H    20.005785     1.048826     4.960302
 H    19.796030     0.049242     6.403328
 H    15.422777     2.139844     6.400981
 H    14.571412     0.599814     4.653234
 H    15.327495    -1.807602     4.602400
 H    16.966051    -2.617067     6.342227
 H    17.832895    -1.062543     8.057773
 H    17.886316     2.736750    11.059925
 H    16.143291     3.041634    10.836614
 H    16.694306     1.834133    12.019552
 H    14.676919     1.314585     9.456011
 H    15.273264    -0.358333     9.378069
 H    15.008714     0.421700    10.960738
 H    17.138158    -0.446809    11.448768
 H    17.851495    -0.896794     9.895073
 H    18.668735     0.290191    10.936593
