   66
FINAL HEAT OF FORMATION =  -181.082364
 N     5.842978     7.755372     3.934597
 C     5.671683     7.129517     2.630611
 C     4.955665     8.678922     4.485603
 C     5.161857     5.800485     2.528065
 C     4.991499     5.229858     1.234851
 H     4.600105     4.212847     1.155118
 C     6.043590     7.860329     1.457466
 C     5.855324     7.256753     0.186775
 H     6.137441     7.815257    -0.708744
 C     5.314304     5.946953     0.053527
 C     4.801591     4.959735     3.751322
 H     5.210750     5.399564     4.668973
 H     5.194985     3.935683     3.646565
 H     3.706342     4.884559     3.866279
 B     3.186757     8.090443     4.741618
 H     2.903291     7.066014     4.223999
 B     5.082288    10.427700     4.546763
 H     6.053660    10.859421     4.031354
 C     5.091592     5.332148    -1.328520
 H     5.953729     5.515264    -1.991164
 H     4.202674     5.771318    -1.815565
 H     4.933475     4.244443    -1.260687
 C     6.637055     9.263244     1.544642
 H     5.847558    10.018611     1.685615
 H     7.181022     9.507837     0.619546
 H     7.327328     9.359858     2.396168
 B     3.784760     9.487256     3.644995
 H     3.734896     9.354477     2.472838
 B     2.238070     9.628580     4.608103
 H     1.211781     9.694275     4.019647
 B     3.408934    11.027340     4.588165
 H     3.153968    12.040370     4.028207
 H     6.698854     7.570845     4.454636
 N     4.245074     6.840089     6.812424
 C     4.882599     6.677264     8.111802
 C     3.891495     8.069694     6.256827
 C     6.286793     6.435317     8.199131
 C     6.878941     6.300905     9.486503
 H     7.953484     6.115904     9.555588
 C     4.077620     6.738613     9.293005
 C     4.707718     6.603474    10.558115
 H     4.093753     6.652630    11.460383
 C     6.111290     6.402104    10.676574
 C     7.178881     6.306638     6.965495
 H     6.603476     5.995979     6.083561
 H     7.975284     5.567028     7.142682
 H     7.665419     7.269636     6.731565
 B     5.283380     9.304872     5.999366
 H     6.310669     9.045303     6.523363
 B     2.312656     8.831737     6.189932
 H     1.453335     8.207960     6.708217
 C     6.770755     6.293350    12.051663
 H     6.169884     5.670974    12.735240
 H     6.873933     7.289592    12.517744
 H     7.777224     5.852462    11.978005
 C     2.566389     6.937750     9.221184
 H     2.313159     7.999710     9.074085
 H     2.090473     6.600126    10.154464
 H     2.123505     6.384225     8.379447
 B     3.772742     9.491517     7.091348
 H     3.911924     9.473987     8.263572
 B     4.423909    10.897024     6.123955
 H     4.878682    11.821252     6.709472
 B     2.628127    10.581208     6.139902
 H     1.876436    11.310541     6.694757
 H     3.939988     6.006053     6.313756
