   74
FINAL HEAT OF FORMATION =  -205.913130
 C     0.834329     5.554553     9.035329
 C     1.614448     5.628795     7.645037
 C     0.869725     3.971094     9.692527
 C     1.849138     7.099451     7.158158
 C    -0.485562     3.713072    10.450752
 C    -0.598734     6.255823     8.703312
 C     2.071437     3.782097    10.727658
 C    -1.522907     6.518051     9.942320
 C     1.733347     7.980518     9.517296
 C     3.598560     2.558380     9.062934
 C     1.496590     6.545149    10.096356
 C    -0.345390     7.741242     8.153213
 C    -1.344478     5.495171     7.562210
 C     1.932610     2.432954    11.529201
 C     0.924500     1.346407     9.501430
 C     0.622553     6.710932    11.384428
 C     0.473120     7.754957     6.839123
 C     1.062239     2.711806     8.707685
 C     0.357492     8.638863     9.209645
 C     2.072498     1.225695    10.554255
 C    -0.569768     2.373388    11.225908
 C     3.469355     3.775524    10.027439
 C     3.467180     1.241331     9.876279
 C     2.458976     2.602588     8.002540
 C    -0.527147     5.531416     6.231711
 C    -0.440338     1.206713    10.217746
 C    -0.765612     7.335744    11.040001
 C     0.575139     2.338336    12.274019
 C     2.600318     7.920552     8.235478
 C    -0.508085     8.766913    10.489693
 C     0.873398     4.905044     6.468888
 C    -0.316373     6.990875     5.745952
 H     2.487578     6.167253    10.381746
 H     4.578835     2.591627     8.554096
 H    -1.548596     2.327356    11.737732
 H    -1.267759     1.249701     9.485730
 H     3.575121     7.448150     8.458518
 H     0.765001     3.832513     6.629808
 H     0.521802     9.640361     8.768627
 H     2.257181     8.570689    10.293119
 H     3.643818     4.713136     9.478107
 H     1.152400     7.396536    12.073017
 H     4.261671     1.177256    10.642533
 H     3.579541     0.369025     9.206784
 H    -1.351166     8.154156     7.943094
 H    -2.376583     7.127630     9.587927
 H    -1.464874     9.266405    10.251938
 H     0.535802     1.405604    12.865873
 H     0.505379     5.764982    11.927033
 H     2.054339     4.581572    11.479034
 H     0.462396     3.182092    12.979971
 H     2.805424     8.942038     7.865589
 H     2.611688     5.190740     7.782061
 H     4.254616     3.710265    10.804186
 H     0.251588     2.712794     7.961372
 H     2.760514     2.402670    12.263188
 H     0.236291     6.990285     4.788690
 H    -1.286151     7.491795     5.569695
 H    -1.532585     4.446897     7.848470
 H     2.459461     7.050784     6.236538
 H    -0.500632     0.228759    10.729706
 H    -1.311258     3.744391     9.724167
 H    -1.065031     4.952070     5.459433
 H     0.011453     9.383875    11.245724
 H    -0.659044     4.508696    11.177725
 H     2.471891     1.660753     7.421694
 H     2.647625     3.404458     7.286168
 H    -1.963126     5.606071    10.351316
 H    -1.384365     7.387302    11.954079
 H     0.631215     8.803990     6.524338
 H     1.031739     0.536608     8.755366
 H     1.485503     5.025825     5.554764
 H    -2.332594     5.967528     7.402761
 H     1.941841     0.284231    11.120563
