   28
FINAL HEAT OF FORMATION =   -67.439083
 B     0.403722     6.627630     5.271889
 H     0.856746     6.051121     6.201757
 B    -2.094534     7.658711     4.066278
 H    -3.271209     7.726303     3.970924
 B    -1.244396     6.141945     4.647695
 H    -1.818030     5.194235     5.067066
 B    -1.066955     8.045855     2.578305
 H    -1.472993     8.428103     1.531703
 B     0.299643     5.884847     3.626232
 H     0.599881     4.779282     3.319743
 B     0.579135     8.444864     4.991273
 H     1.187936     9.175144     5.697665
 B     1.473185     7.265130     3.996746
 H     2.631594     7.072323     3.858354
 B     0.603214     8.647476     3.163096
 H     1.161011     9.486029     2.539567
 B    -1.011490     7.766176     5.478927
 H    -1.481299     7.983278     6.544332
 B    -0.921892     9.000047     4.107511
 H    -1.294761    10.120549     4.195203
 C     0.542547     7.115507     2.516242
 C    -1.361181     6.456640     3.017402
 N     0.983871     6.782475     1.240537
 N    -1.974940     5.615004     2.096462
 H    -2.081078     4.625269     2.294638
 H    -2.366203     5.988688     1.238206
 H     1.050144     7.491529     0.517337
 H     1.291430     5.838337     1.032208
