   55
FINAL HEAT OF FORMATION =  -159.269522
 B     0.337925     0.660901    12.625684
 H    -0.819483     0.876986    12.564226
 B     1.235108     0.211384    14.104128
 H     0.628449    -0.010252    15.093754
 B     2.745501     1.260395    14.213302
 H     3.104106     1.644786    15.271491
 B     2.896687     2.351089    12.785807
 H     3.141881     3.500584    12.860746
 B     2.916858     1.393055    11.276363
 H     3.345869     1.882628    10.289500
 B     1.365703     0.400334    11.174268
 H     0.847451     0.257880    10.121835
 B     1.358654    -0.783263    12.579103
 H     0.851412    -1.848615    12.484918
 B     3.817607     0.850575    12.777609
 H     4.998273     0.893750    12.851959
 B     2.917182    -0.354772    11.747530
 H     3.495388    -1.153851    11.092954
 B     2.834620    -0.449683    13.584080
 H     3.367257    -1.304555    14.205970
 N     0.484927     3.007238    13.943336
 N     0.660157     3.172698    11.538210
 C     1.278511     1.879218    13.534737
 C     1.392924     1.981889    11.893783
 C    -0.139862     3.632543    12.739491
 H    -0.117157     4.726423    12.823505
 H    -1.192418     3.308587    12.629672
 C    -0.080284     3.168086    10.252028
 H    -0.963031     2.495833    10.299253
 H     0.602073     2.766480     9.486903
 C    -0.523803     4.585688     9.886230
 C     0.392641     5.669389     9.993763
 H     1.401266     5.474144    10.362847
 C    -0.009412     6.981963     9.638406
 H     0.699310     7.808938     9.722715
 C    -1.332090     7.222601     9.172798
 H    -1.641508     8.233954     8.900147
 C    -2.249869     6.144195     9.068590
 H    -3.268657     6.322714     8.717635
 C    -1.846577     4.830004     9.429456
 H    -2.555684     4.001532     9.356111
 C     1.009591     3.912536    15.000333
 H     1.818705     4.564356    14.614633
 H     1.445360     3.270562    15.780358
 C    -0.116442     4.768042    15.584954
 C     0.085718     6.155514    15.818304
 H     1.042573     6.614469    15.556701
 C    -0.949007     6.945765    16.388022
 H    -0.784569     8.011119    16.564132
 C    -2.195973     6.352250    16.718231
 H    -2.994153     6.958957    17.151507
 C    -2.404019     4.965561    16.477545
 H    -3.362554     4.505229    16.727596
 C    -1.369162     4.177139    15.913260
 H    -1.522071     3.114827    15.713980
