   50
FINAL HEAT OF FORMATION =  -151.216391
 B     5.754194     3.536657     3.567751
 B     4.179422     4.456376     3.588842
 B     3.552888     4.456924     5.294460
 B     5.757237     5.338012     3.558305
 B     4.395891     5.914623     4.635877
 C     4.419762     3.093136     4.645347
 C     2.648183     1.662469     3.998655
 H     2.010215     2.532452     3.769724
 N     3.866964     1.796634     4.441122
 C     2.049671     0.325562     3.777911
 C     0.711241     0.237845     3.294937
 H     0.147587     1.152718     3.094821
 C     0.116221    -1.030839     3.076173
 H    -0.908910    -1.096682     2.706422
 C     0.857717    -2.213809     3.339464
 H     0.400759    -3.191652     3.171377
 C     2.195976    -2.128336     3.822136
 H     2.761831    -3.040565     4.022807
 C     2.792926    -0.865453     4.041753
 H     3.814753    -0.769916     4.410397
 H     2.403030     4.287679     5.512507
 H     6.053813     2.743470     2.750299
 H     3.443727     4.286844     2.678686
 H     6.111904     5.922137     2.592059
 H     3.794998     6.910462     4.415186
 B     4.739318     3.536659     6.329433
 B     6.314088     4.456380     6.308340
 B     6.940622     4.456925     4.602723
 B     4.736272     5.338014     6.338876
 B     6.097618     5.914625     5.261302
 C     6.073749     3.093137     5.251838
 C     7.845329     1.662473     5.898532
 H     8.483297     2.532457     6.127462
 N     6.626548     1.796636     5.456066
 C     8.443842     0.325567     6.119280
 C     9.782272     0.237851     6.602254
 H    10.345925     1.152725     6.802367
 C    10.377293    -1.030832     6.821021
 H    11.402424    -1.096673     7.190772
 C     9.635798    -2.213803     6.557733
 H    10.092757    -3.191645     6.725822
 C     8.297539    -2.128332     6.075061
 H     7.731684    -3.040562     5.874392
 C     7.700588    -0.865449     5.855441
 H     6.678761    -0.769914     5.486796
 H     8.090480     4.287679     4.384676
 H     4.439698     2.743474     7.146887
 H     7.049783     4.286850     7.218497
 H     4.381604     5.922142     7.305119
 H     6.698510     6.910465     5.481991
