   66
scf done: -1540.058964
 C     0.000698     4.251610     1.534080
 C     0.001084     4.710739     0.230973
 C     0.001565     4.093750    -2.229700
 H     0.000795     4.965984     2.352387
 H     0.001395     5.777158     0.022687
 H     0.001879     5.132327    -2.549718
 C     0.000201     1.930044     0.824805
 C     0.000286     2.865627     1.845080
 C     0.001104     3.785754    -0.843363
 C     0.001573     3.078950    -3.168279
 C     0.001121     1.708961    -2.797627
 C     0.000693     1.387136    -1.460286
 C     0.000658     2.408973    -0.498835
 C    -0.000191     0.392420     0.875527
 C    -1.258280    -0.143491     1.596866
 C    -2.202666     0.736172     2.148321
 C    -3.393514     0.296631     2.719192
 C    -3.700436    -1.062387     2.731980
 C    -2.785491    -1.955044     2.194618
 C    -1.556131    -1.529408     1.654619
 C    -0.673407    -2.589176     1.189016
 C     0.671172    -2.589571     1.189255
 C     1.554340    -1.530286     1.655169
 C     1.257278    -0.144215     1.597446
 C     0.000195    -0.001318    -0.809737
 C    -1.354461    -0.614803    -1.216310
 C    -2.452456     0.230873    -0.963512
 C    -3.768745    -0.129638    -1.211265
 C    -4.039952    -1.383305    -1.758655
 C    -2.979648    -2.228578    -2.035516
 C    -1.631214    -1.880019    -1.779208
 C    -0.671782    -2.917627    -2.122535
 C     0.671732    -2.917872    -2.122348
 C     1.631390    -1.880581    -1.778634
 C     1.354787    -0.615398    -1.215597
 H     0.000047     2.557111     2.885674
 H     0.001910     3.335534    -4.224176
 H     0.001118     0.934385    -3.558336
 H    -2.039575     1.801160     2.088601
 H    -4.092402     1.023368     3.123988
 H    -4.637409    -1.417925     3.150714
 H    -3.003562    -3.019027     2.193471
 H    -1.169882    -3.514551     0.907963
 H     1.167179    -3.515270     0.908430
 H    -2.260708     1.191734    -0.507969
 H    -4.572064     0.559823    -0.970485
 H    -5.059716    -1.693713    -1.966974
 H    -3.178123    -3.204604    -2.468365
 H    -1.137637    -3.844698    -2.451903
 H     1.137338    -3.845081    -2.451670
 H     2.261356     1.190548    -0.506315
 C     2.783335    -1.956607     2.195467
 C     3.698624    -1.064482     2.733107
 C     3.392390     0.294703     2.720446
 C     2.201926     0.734918     2.149285
 C     2.979796    -2.229503    -2.034616
 C     4.040271    -1.384601    -1.757264
 C     3.769226    -0.131025    -1.209556
 C     2.452976     0.229767    -0.962098
 H     3.000888    -3.020690     2.194241
 H     4.635288    -1.420550     3.152095
 H     4.091599     1.020994     3.125491
 H     2.039310     1.799986     2.089618
 H     3.178066    -3.205506    -2.467635
 H     5.060009    -1.695239    -1.965376
 H     4.572623     0.558176    -0.968307
