   68
scf done: -1616.250545
 C     1.531025     0.002054     1.110864
 C     2.396937     0.003115     2.206458
 C     3.824080     0.003695     2.050317
 C     4.404475     0.003183     0.785894
 C     3.506308     0.002304    -0.297333
 C     4.151066     0.001049    -1.549255
 C     3.323669    -0.000786    -2.668587
 C     1.895634    -0.001333    -2.520515
 C     1.305510     0.000015    -1.266463
 C     2.143152     0.001743    -0.147582
 C     5.739652     0.002724     0.151314
 C     5.589190     0.001456    -1.213257
 C    -0.000119     0.001022     0.953682
 C    -0.620159     1.258151     1.590269
 C     0.179620     2.198901     2.257501
 C    -0.328398     3.390348     2.768206
 C    -1.674814     3.702634     2.594100
 C    -2.489972     2.788645     1.943476
 C    -2.002023     1.555997     1.470082
 C    -2.988573     0.671988     0.867314
 C    -2.987913    -0.673071     0.867989
 C    -2.000411    -1.555386     1.471755
 C    -2.486966    -2.788098     1.946345
 C    -1.670933    -3.700369     2.598293
 C    -0.324917    -3.386358     2.772333
 C     0.181856    -2.194970     2.260205
 C    -0.618881    -1.255847     1.591923
 C    -0.163926    -0.000666    -0.819876
 C    -0.727628     1.352456    -1.285776
 C     0.076192     2.451611    -0.928785
 C    -0.261428     3.769393    -1.199821
 C    -1.449768     4.042004    -1.875011
 C    -2.250758     2.980203    -2.259654
 C    -1.922443     1.630392    -1.987650
 C    -2.896822     0.668132    -2.473851
 C    -2.895637    -0.675971    -2.472992
 C    -1.919790    -1.636018    -1.985408
 C    -2.245870    -2.986684    -2.256114
 C    -1.443355    -4.046816    -1.870135
 C    -0.255780    -3.771429    -1.194718
 C     0.079715    -2.452837    -0.925053
 C    -0.725627    -1.355315    -1.283594
 H     1.999260     0.003534     3.216572
 H     4.431113     0.004471     2.952437
 H     3.732620    -0.001954    -3.675555
 H     1.280417    -0.003052    -3.415446
 H     6.686900     0.003251     0.676712
 H     1.242914     2.031387     2.343124
 H     0.341030     4.084153     3.268500
 H    -2.082327     4.641882     2.956541
 H    -3.544213     3.009805     1.799314
 H    -3.868009     1.170006     0.465339
 H    -3.866804    -1.172334     0.466498
 H    -3.540893    -3.010755     1.802103
 H    -2.077468    -4.639618     2.961834
 H     0.345195    -4.078827     3.273578
 H     1.244999    -2.026213     2.345615
 H     0.989677     2.258380    -0.384037
 H     0.396460     4.571370    -0.879130
 H    -1.743309     5.062740    -2.101526
 H    -3.174985     3.179560    -2.794581
 H    -3.768655     1.129228    -2.934465
 H    -3.766712    -1.139299    -2.932738
 H    -3.169646    -3.187834    -2.791189
 H    -1.735057    -5.068287    -2.095711
 H     0.403375    -4.571889    -0.872788
 H     0.992887    -2.258045    -0.380360
 H     6.400214     0.000785    -1.931997
