  212
scf done: -3353.637357
 C     0.823448    -0.016528     0.011313
 C    -0.823448     0.016528    -0.011313
 C     1.456610     0.317216    -1.383049
 C    -1.456610    -0.317216     1.383049
 C    -1.407869     1.406593    -0.424470
 C     1.407869    -1.406593     0.424470
 C     1.424081     1.030967     1.004962
 C    -1.424081    -1.030967    -1.004962
 C     1.057564     1.076771     2.356682
 C    -1.057564    -1.076771    -2.356682
 C    -1.061689    -1.433646     2.145606
 C     1.061689     1.433646    -2.145606
 C     1.017994    -2.605283    -0.196186
 C    -1.017994     2.605283     0.196186
 C     2.466668     1.875848     0.607705
 C    -2.466668    -1.875848    -0.607705
 C    -2.576799     0.390676     1.823043
 C     2.576799    -0.390676    -1.823043
 C     2.503840    -1.474983     1.292506
 C    -2.503840     1.474983    -1.292506
 C     1.626363     1.984096     3.254942
 C    -1.626363    -1.984096    -3.254942
 C    -1.729576    -1.806633     3.312793
 C     1.729576     1.806633    -3.312793
 C     1.655963    -3.822728     0.061477
 C    -1.655963     3.822728    -0.061477
 C     3.056211     2.807776     1.468378
 C    -3.056211    -2.807776    -1.468378
 C    -3.297384     0.026537     2.971369
 C     3.297384    -0.026537    -2.971369
 C     3.188264    -2.666876     1.557160
 C    -3.188264     2.666876    -1.557160
 C     2.600829     2.876368     2.789063
 C    -2.600829    -2.876368    -2.789063
 C    -2.859502    -1.069973     3.708211
 C     2.859502     1.069973    -3.708211
 C     2.747876    -3.837541     0.938184
 C    -2.747876     3.837541    -0.938184
 H     0.331014     0.386327     2.743339
 H    -0.331014    -0.386327    -2.743339
 H    -0.217995    -2.011508     1.820466
 H     0.217995     2.011508    -1.820466
 H     0.218479    -2.600315    -0.914037
 H    -0.218479     2.600315     0.914037
 H     2.869545     1.793374    -0.388778
 H    -2.869545    -1.793374     0.388778
 H    -2.947194     1.228386     1.255302
 H     2.947194    -1.228386    -1.255302
 H     2.859070    -0.573342     1.768140
 H    -2.859070     0.573342    -1.768140
 C     1.168242     1.941742     4.719626
 C    -1.168242    -1.941742    -4.719626
 C    -1.283633    -3.006734     4.161346
 C     1.283633     3.006734    -4.161346
 C     1.140047    -5.096058    -0.621391
 C    -1.140047     5.096058     0.621391
 C     4.253933     3.623091     0.962186
 C    -4.253933    -3.623091    -0.962186
 C    -4.538375     0.846011     3.342798
 C     4.538375    -0.846011    -3.342798
 C     4.417896    -2.618656     2.472091
 C    -4.417896     2.618656    -2.472091
 H     3.021871     3.602022     3.469627
 H    -3.021871    -3.602022    -3.469627
 H    -3.394729    -1.367222     4.598906
 H     3.394729     1.367222    -4.598906
 H     3.264313    -4.767902     1.122066
 H    -3.264313     4.767902    -1.122066
 C     5.226544    -0.333865    -4.617833
 C    -5.226544     0.333865     4.617833
 C    -5.030016     4.008122    -2.715851
 C     5.030016    -4.008122     2.715851
 C     4.612295     4.783740     1.904705
 C    -4.612295    -4.783740    -1.904705
 C     5.555816    -0.763227    -2.180016
 C    -5.555816     0.763227     2.180016
 C    -5.489087     1.727430    -1.807750
 C     5.489087    -1.727430     1.807750
 C     5.458774     2.656924     0.874227
 C    -5.458774    -2.656924    -0.874227
 C     4.138125    -2.323014    -3.554418
 C    -4.138125     2.323014     3.554418
 C    -4.031323     2.010069    -3.836403
 C     4.031323    -2.010069     3.836403
 C     3.980009     4.220295    -0.436543
 C    -3.980009    -4.220295     0.436543
 C     1.076907     2.542611    -5.619692
 C    -1.076907    -2.542611     5.619692
 C    -1.994410     6.332335     0.291579
 C     1.994410    -6.332335    -0.291579
 C     1.858559     3.006257     5.587116
 C    -1.858559    -3.006257    -5.587116
 C    -0.035384     3.616103    -3.661976
 C     0.035384    -3.616103     3.661976
 C     0.300541     5.362602     0.136248
 C    -0.300541    -5.362602    -0.136248
 C    -0.356889     2.152728     4.810048
 C     0.356889    -2.152728    -4.810048
 C     2.374838     4.098555    -4.128698
 C    -2.374838    -4.098555     4.128698
 C    -1.133844     4.904187     2.150805
 C     1.133844    -4.904187    -2.150805
 C     1.505667     0.546900     5.293778
 C    -1.505667    -0.546900    -5.293778
 H     0.695764     3.368467    -6.230903
 H    -0.695764    -3.368467     6.230903
 H    -1.605244     7.203025     0.830772
 H     1.605244    -7.203025    -0.830772
 H     1.531797     2.906164     6.628288
 H    -1.531797    -2.906164    -6.628288
 H     2.009568     2.196333    -6.075758
 H    -2.009568    -2.196333     6.075758
 H    -3.038166     6.188952     0.591857
 H     3.038166    -6.188952    -0.591857
 H     2.948492     2.895332     5.569900
 H    -2.948492    -2.895332    -5.569900
 H     0.358671     1.719300    -5.661320
 H    -0.358671    -1.719300     5.661320
 H    -1.975793     6.568734    -0.778439
 H     1.975793    -6.568734     0.778439
 H     1.609823     4.020933     5.254300
 H    -1.609823    -4.020933    -5.254300
 H     2.118044     4.916284    -4.812673
 H    -2.118044    -4.916284     4.812673
 H    -0.781298     5.816033     2.648067
 H     0.781298    -5.816033    -2.648067
 H     1.177047     0.468135     6.336787
 H    -1.177047    -0.468135    -6.336787
 H     2.482174     4.517551    -3.122129
 H    -2.482174    -4.517551     3.122129
 H    -0.473243     4.087194     2.447494
 H     0.473243    -4.087194    -2.447494
 H     1.012548    -0.245542     4.722858
 H    -1.012548     0.245542    -4.722858
 H     3.350503     3.704317    -4.432646
 H    -3.350503    -3.704317     4.432646
 H    -2.138909     4.680911     2.527117
 H     2.138909    -4.680911    -2.527117
 H     2.584834     0.363455     5.258110
 H    -2.584834    -0.363455    -5.258110
 H    -0.330601     4.443049    -4.317021
 H     0.330601    -4.443049     4.317021
 H     0.707413     6.275664     0.589860
 H    -0.707413    -6.275664    -0.589860
 H    -0.693227     1.997176     5.841936
 H     0.693227    -1.997176    -5.841936
 H    -0.841572     2.877027    -3.669292
 H     0.841572    -2.877027     3.669292
 H     0.318978     5.488292    -0.951882
 H    -0.318978    -5.488292     0.951882
 H    -0.643886     3.167125     4.513330
 H     0.643886    -3.167125    -4.513330
 H     0.054266     4.009429    -2.646656
 H    -0.054266    -4.009429     2.646656
 H     0.970265     4.537329     0.387257
 H    -0.970265    -4.537329    -0.387257
 H    -0.901147     1.454318     4.171757
 H     0.901147    -1.454318    -4.171757
 H     6.109458    -0.948012    -4.824628
 H    -6.109458     0.948012     4.824628
 H    -5.899872     3.918881    -3.375643
 H     5.899872    -3.918881     3.375643
 H     5.413220     5.380239     1.455722
 H    -5.413220    -5.380239    -1.455722
 H     4.567994    -0.392437    -5.491563
 H    -4.567994     0.392437     5.491563
 H    -4.318753     4.687171    -3.199146
 H     4.318753    -4.687171     3.199146
 H     3.750895     5.439782     2.072370
 H    -3.750895    -5.439782    -2.072370
 H     5.560879     0.703070    -4.503756
 H    -5.560879    -0.703070     4.503756
 H    -5.366167     4.470021    -1.780722
 H     5.366167    -4.470021     1.780722
 H     4.970890     4.428176     2.876560
 H    -4.970890    -4.428176    -2.876560
 H     6.498402    -1.246845    -2.462030
 H    -6.498402     1.246845     2.462030
 H    -6.393317     1.679193    -2.426892
 H     6.393317    -1.679193     2.426892
 H     6.371016     3.202750     0.605911
 H    -6.371016    -3.202750    -0.605911
 H     5.766828     0.281836    -1.925781
 H    -5.766828    -0.281836     1.925781
 H    -5.769384     2.123454    -0.825739
 H     5.769384    -2.123454     0.825739
 H     5.625999     2.159496     1.836250
 H    -5.625999    -2.159496    -1.836250
 H     5.186530    -1.259048    -1.277243
 H    -5.186530     1.259048     1.277243
 H    -5.125521     0.706354    -1.657022
 H     5.125521    -0.706354     1.657022
 H     5.288051     1.881417     0.119401
 H    -5.288051    -1.881417    -0.119401
 H     5.034211    -2.943454    -3.673544
 H    -5.034211     2.943454     3.673544
 H    -4.908518     1.965141    -4.492566
 H     4.908518    -1.965141     4.492566
 H     4.881860     4.713080    -0.818943
 H    -4.881860    -4.713080     0.818943
 H     3.568427    -2.709596    -2.703558
 H    -3.568427     2.709596     2.703558
 H    -3.638533     0.994790    -3.734596
 H     3.638533    -0.994790     3.734596
 H     3.680364     3.466203    -1.170384
 H    -3.680364    -3.466203     1.170384
 H     3.517883    -2.441180    -4.449857
 H    -3.517883     2.441180     4.449857
 H    -3.265570     2.617345    -4.332764
 H     3.265570    -2.617345     4.332764
 H     3.183525     4.969719    -0.383875
 H    -3.183525    -4.969719     0.383875
