   66
scf done: -1140.940141
 N     1.350468    -0.228622     0.799344
 C     2.623804    -0.715262     0.320214
 C     0.835560     1.024763     0.480477
 C     2.667747    -1.595886    -0.776180
 C     3.908875    -2.093557    -1.188544
 H     3.939430    -2.777268    -2.033300
 C     3.806393    -0.378832     1.012408
 C     5.018049    -0.917147     0.574062
 H     5.928176    -0.666103     1.113962
 C     5.094193    -1.768899    -0.530413
 C     1.433436    -2.055516    -1.510206
 H     0.532395    -1.872360    -0.928030
 H     1.499683    -3.125611    -1.733506
 H     1.326768    -1.529896    -2.466836
 B     0.645116     1.421614    -1.198340
 H     1.085227     0.683186    -2.006201
 B     0.836748     2.378806     1.487624
 H     1.372315     2.232740     2.530870
 C     6.411174    -2.372557    -0.955923
 H     6.575514    -3.334784    -0.454464
 H     7.252425    -1.721225    -0.698003
 H     6.439785    -2.555757    -2.034677
 C     3.815462     0.538141     2.210510
 H     3.873558     1.590103     1.906569
 H     4.683518     0.333189     2.844734
 H     2.917725     0.443311     2.828154
 B     1.695241     2.339272    -0.065622
 H     2.868323     2.220259    -0.158420
 B     0.703529     3.201415    -1.254962
 H     1.217401     3.772058    -2.159355
 B     0.769809     3.786327     0.426934
 H     1.339071     4.781908     0.731161
 H     1.140815    -0.502524     1.752167
 N    -1.350458    -0.228647    -0.799322
 C    -2.623794    -0.715306    -0.320220
 C    -0.835575     1.024747    -0.480461
 C    -2.667769    -1.595861     0.776223
 C    -3.908920    -2.093473     1.188604
 H    -3.939505    -2.777122     2.033413
 C    -3.806370    -0.378892    -1.012456
 C    -5.018038    -0.917172    -0.574114
 H    -5.928156    -0.666152    -1.114041
 C    -5.094214    -1.768853     0.530419
 C    -1.433483    -2.055504     1.510284
 H    -0.532424    -1.872354     0.928134
 H    -1.499742    -3.125607     1.733546
 H    -1.326835    -1.529914     2.466933
 B    -0.645124     1.421637     1.198342
 H    -1.085240     0.683229     2.006215
 B    -0.836731     2.378789    -1.487636
 H    -1.372252     2.232723    -2.530907
 C    -6.411215    -2.372477     0.955917
 H    -6.575687    -3.334580     0.454267
 H    -7.252429    -1.721012     0.698206
 H    -6.439748    -2.555896     2.034634
 C    -3.815401     0.538088    -2.210552
 H    -3.873257     1.590054    -1.906594
 H    -4.683569     0.333314    -2.844678
 H    -2.917755     0.443104    -2.828308
 B    -1.695240     2.339302     0.065612
 H    -2.868333     2.220363     0.158448
 B    -0.703496     3.201456     1.254928
 H    -1.217352     3.772136     2.159308
 B    -0.769770     3.786329    -0.426980
 H    -1.339020     4.781913    -0.731223
 H    -1.140778    -0.502553    -1.752138
