   62
scf done: -6534.131644
Br     1.749217     3.313055    -0.469451
Br     1.749419    -3.313020     0.469399
 C    -0.867721     0.843344    -0.203845
 C    -0.867647    -0.843466     0.203864
 C     0.647792    -0.690401     0.137128
 C     1.807351    -1.405808     0.222814
 C     3.058542    -0.715611     0.108334
 C     4.306964    -1.379421     0.219294
 C     5.496739    -0.696159     0.112793
 C     5.496704     0.696151    -0.114230
 C     4.306899     1.379416    -0.220416
 C     3.058507     0.715588    -0.109169
 C     1.807286     1.405778    -0.223293
 C     0.647756     0.690345    -0.137386
 C    -1.427552     1.078884    -1.592033
 C    -2.780349     0.819764    -1.871621
 C    -3.290136     0.977911    -3.157226
 C    -2.457108     1.395617    -4.197534
 C    -1.113370     1.652842    -3.934968
 C    -0.607009     1.492851    -2.645214
 C    -1.402058     1.776626     0.871792
 C    -0.768471     1.801981     2.125577
 C    -1.247196     2.590610     3.165417
 C    -2.369438     3.398298     2.972745
 C    -2.991134     3.408413     1.726544
 C    -2.511165     2.610785     0.685702
 C    -1.402275    -1.776761    -0.871619
 C    -0.768881    -1.802453    -2.125488
 C    -1.248025    -2.591064    -3.165161
 C    -2.370529    -3.398321    -2.972262
 C    -2.991997    -3.408164    -1.725945
 C    -2.511611    -2.610575    -0.685272
 C    -1.427072    -1.078977     1.592210
 C    -0.606152    -1.492617     2.645224
 C    -1.112108    -1.652417     3.935158
 C    -2.455811    -1.395352     4.198069
 C    -3.289206    -0.977961     3.157936
 C    -2.779812    -0.819948     1.872156
 H     4.305634    -2.448444     0.393511
 H     6.436730    -1.232105     0.203886
 H     6.436671     1.232101    -0.205582
 H     4.305537     2.448447    -0.394589
 H    -3.441723     0.480024    -1.081299
 H    -4.337146     0.762590    -3.350634
 H    -2.851403     1.512638    -5.202652
 H    -0.451919     1.973765    -4.734678
 H     0.442577     1.675871    -2.460475
 H     0.106226     1.185074     2.294456
 H    -0.739618     2.572980     4.125438
 H    -2.746577     4.018829     3.780402
 H    -3.855061     4.044407     1.553420
 H    -3.006598     2.653089    -0.276150
 H     0.106104    -1.186026    -2.294614
 H    -0.740594    -2.573693    -4.125265
 H    -2.748064    -4.018714    -3.779841
 H    -3.856092    -4.043873    -1.552621
 H    -3.006825    -2.652704     0.276695
 H     0.443433    -1.675412     2.460245
 H    -0.450353    -1.972996     4.734755
 H    -2.849791    -1.512271     5.203321
 H    -4.336200    -0.762806     3.351604
 H    -3.441431    -0.480336     1.081995
