   74
scf done: -1244.910817
 C    -0.621294    -0.030201    -0.114544
 C    -0.957494    -1.535584    -0.403195
 C     1.030921     0.173234     0.170650
 C    -2.384127    -1.739852    -0.964501
 C     1.175858     1.291660     1.228494
 C    -1.689693     0.386447     1.002918
 C     1.827062     0.605422    -1.111145
 C    -1.746501     1.893377     1.350159
 C    -2.437669     0.571726    -1.871563
 C     2.767937    -1.701760    -1.577109
 C    -1.014782     0.860231    -1.350219
 C    -3.150067     0.128443     0.437167
 C    -1.549209    -0.504268     2.251747
 C     3.264005     1.076824    -0.762009
 C     3.346234    -0.583340     1.055763
 C    -0.947878     2.370362    -1.032737
 C    -3.399040    -1.344685     0.116093
 C     1.895871    -1.042472     0.702365
 C    -3.453209     0.981131    -0.798787
 C     4.075336    -0.100221    -0.207739
 C     2.604556     1.720612     1.549838
 C     1.937799    -0.538487    -2.142564
 C     4.181499    -1.208811    -1.254753
 C     2.102992    -2.213240    -0.290816
 C    -1.831738    -1.983459     1.925204
 C     3.363651     0.522891     2.113350
 C    -1.947612     2.740142     0.077093
 C     3.267330     2.216018     0.262351
 C    -2.601470    -0.904709    -2.222515
 C    -3.354023     2.471662    -0.475157
 C    -0.872343    -2.461894     0.830129
 C    -3.259020    -2.161771     1.398859
 H    -0.345125     0.638674    -2.182381
 H     2.817457    -2.515902    -2.310927
 H     2.565364     2.534019     2.285905
 H     2.892489     0.170326     3.041767
 H    -1.876263    -1.187361    -2.998272
 H     0.130515    -2.562455     1.230344
 H    -4.466185     0.742476    -1.150532
 H    -2.590325     1.185361    -2.771244
 H     0.946734    -0.900046    -2.431976
 H    -1.216024     2.923706    -1.943337
 H     4.677677    -0.831536    -2.159944
 H     4.796392    -2.037848    -0.879664
 H    -3.834888     0.416167     1.247635
 H    -2.619431     2.043472     2.001706
 H    -4.122028     2.758739     0.256385
 H     4.300009     2.535851     0.458780
 H     0.061682     2.694719    -0.782289
 H     1.352553     1.461823    -1.589908
 H     2.731711     3.090256    -0.134083
 H    -3.603595    -1.087598    -2.632877
 H    -0.274914    -1.880835    -1.177927
 H     2.406680    -0.151199    -3.058120
 H     1.478826    -1.405268     1.648160
 H     3.719686     1.428652    -1.699474
 H    -3.459675    -3.224900     1.210053
 H    -3.995877    -1.819353     2.138926
 H    -0.544398    -0.414166     2.677969
 H    -2.494480    -2.805729    -1.207851
 H     4.400407     0.792168     2.358581
 H     0.682976     0.970949     2.147782
 H    -1.689441    -2.588147     2.830474
 H    -3.526217     3.075970    -1.376007
 H     0.643870     2.173392     0.890879
 H     2.760190    -2.948173     0.193537
 H     1.190355    -2.745986    -0.536582
 H    -0.898425     2.236495     1.933199
 H    -1.841979     3.802687     0.330387
 H    -4.418825    -1.454781    -0.279845
 H     3.857377    -1.469333     1.458699
 H    -1.168740    -3.469411     0.505121
 H    -2.247218    -0.159026     3.027325
 H     5.077804     0.250593     0.072651
