   23
scf done:  -739.965420
 C     7.806541     5.653005    10.030213
 C     7.985340     6.930009    10.534497
 C     7.040289     7.916796    10.245420
 C     5.934715     7.594804     9.452251
 C     5.801620     6.304789     8.972580
 N     6.728345     5.361565     9.266544
 C     6.533270     3.989789     8.762555
 C     7.609384     2.882182     8.720754
 C     5.524181     2.950827     9.321739
 C     6.102155     3.607373     7.326870
 C     6.290583     2.290030     8.137086
 I     6.018561     0.328758     7.407244
 H     8.495709     4.838132    10.208499
 H     8.857327     7.140937    11.142309
 H     7.164096     8.923421    10.630147
 H     5.181664     8.332763     9.202171
 H     4.977704     5.980050     8.350338
 H     7.931389     2.464480     9.676741
 H     8.433469     3.013894     8.016459
 H     4.463978     3.153221     9.158246
 H     5.731929     2.554682    10.316584
 H     6.821103     3.798108     6.528322
 H     5.076448     3.841286     7.033333
