   28
scf done:  -442.872672
 C    -0.802786     0.928200    -0.057412
 N    -2.054196     1.542158    -0.078680
 B    -0.419366     0.024273     1.344010
 C    -0.834616    -0.884602    -0.045024
 N    -2.106519    -1.454663    -0.059024
 B     0.479219    -1.440433     0.860387
 B     1.350163    -0.006366     1.420191
 B     1.932883    -0.910669    -0.006648
 B     1.963862     0.857845    -0.018600
 B     0.529984     1.449833     0.840935
 B     0.554299     1.437390    -0.925669
 B    -0.380863     0.004687    -1.435187
 B     0.503783    -1.452803    -0.906221
 B     1.390022    -0.026422    -1.461440
 H     1.975254    -0.043286    -2.492446
 H     0.296046    -2.434422     1.479095
 H     0.337361    -2.455607    -1.515348
 H    -1.209522     0.043670     2.223880
 H    -1.147233     0.012642    -2.335980
 H     2.971692     1.482650    -0.008959
 H     0.423645     2.437134    -1.548445
 H     0.381810     2.457848     1.446177
 H     2.918210    -1.570212     0.011562
 H     1.906460    -0.009145     2.467206
 H    -2.297266    -1.989267    -0.897829
 H    -2.320503    -1.978593     0.780892
 H    -2.248911     2.084723     0.754241
 H    -2.226216     2.072190    -0.924334
