   55
scf done: -1021.736265
 B    -2.278410     0.000227    -1.444984
 H    -1.507000    -0.020237    -2.336364
 B    -3.094762     1.438276    -0.872545
 H    -2.937872     2.452317    -1.461978
 B    -3.019260     1.444306     0.915942
 H    -2.846982     2.464367     1.489764
 B    -2.185673     0.000692     1.476393
 H    -1.346621     0.000949     2.302783
 B    -3.041798    -1.432090     0.950002
 H    -2.874941    -2.449566     1.531891
 B    -3.084611    -1.436956    -0.841533
 H    -2.948771    -2.457146    -1.424909
 B    -4.010768    -0.001929    -1.381052
 H    -4.642678    -0.017988    -2.384217
 B    -3.920112     0.018452     1.508538
 H    -4.486282     0.040394     2.549958
 B    -4.498109    -0.890125     0.087908
 H    -5.495002    -1.530507     0.127903
 B    -4.495406     0.902661     0.072726
 H    -5.488301     1.549625     0.110653
 N    -0.380913     1.195422    -0.118218
 N    -0.376112    -1.181800     0.016907
 C    -1.744075     0.813894    -0.017834
 C    -1.750680    -0.817806     0.016009
 C     0.407236    -0.000585    -0.428519
 H     1.366979     0.035800     0.089819
 H     0.603759    -0.064564    -1.508589
 C    -0.009278    -2.430747    -0.641644
 H    -0.108110    -2.356204    -1.738146
 H    -0.721450    -3.191798    -0.306297
 C     1.404522    -2.829086    -0.276099
 C     1.863969    -2.664787     1.035489
 H     1.198444    -2.220032     1.769056
 C     3.159626    -3.042676     1.381628
 H     3.507436    -2.904906     2.401410
 C     4.010181    -3.593764     0.420077
 H     5.020796    -3.886535     0.689672
 C     3.557989    -3.759711    -0.888881
 H     4.214326    -4.183614    -1.643475
 C     2.262097    -3.372245    -1.235778
 H     1.915345    -3.493626    -2.259307
 C     0.172850     2.096304     0.895317
 H     0.340759     1.590017     1.858710
 H    -0.574004     2.877807     1.065578
 C     1.467330     2.700671     0.394194
 C     2.610031     2.720057     1.197138
 H     2.575196     2.285826     2.193577
 C     3.797229     3.288789     0.729345
 H     4.680184     3.289919     1.362063
 C     3.851906     3.839984    -0.550344
 H     4.775634     4.276807    -0.918431
 C     2.713320     3.819710    -1.360439
 H     2.747065     4.244848    -2.359792
 C     1.530874     3.252822    -0.891303
 H     0.645048     3.230173    -1.519256
