   50
scf done:  -981.215416
 B     5.743033     3.506891     3.607447
 B     4.207714     4.397732     3.621593
 B     3.594414     4.398514     5.282295
 B     5.746456     5.270478     3.595351
 B     4.412303     5.832391     4.640350
 C     4.444423     3.060616     4.652385
 C     2.706326     1.660450     4.037999
 H     2.066657     2.533083     3.862728
 N     3.913997     1.780131     4.441414
 C     2.104514     0.350577     3.784606
 C     0.759341     0.278791     3.396969
 H     0.183580     1.195201     3.294254
 C     0.161068    -0.955684     3.150378
 H    -0.882000    -1.001572     2.852921
 C     0.907079    -2.127338     3.286603
 H     0.445924    -3.091522     3.093890
 C     2.251761    -2.061736     3.671426
 H     2.830827    -2.975000     3.773938
 C     2.850029    -0.832631     3.920732
 H     3.890769    -0.759253     4.218161
 H     2.442859     4.233768     5.502619
 H     6.047371     2.720194     2.783644
 H     3.472658     4.228445     2.709080
 H     6.105445     5.846195     2.623043
 H     3.807584     6.827679     4.416740
 B     4.750631     3.506700     6.289644
 B     6.285756     4.397868     6.275556
 B     6.899055     4.398891     4.614850
 B     4.746818     5.270280     6.301854
 B     6.080850     5.832553     5.256890
 C     6.049334     3.060762     5.244679
 C     7.787628     1.660579     5.859000
 H     8.427362     2.533143     6.034373
 N     6.579963     1.780328     5.455572
 C     8.389234     0.350633     6.112499
 C     9.734369     0.278638     6.500228
 H    10.310285     1.194952     6.602922
 C    10.332402    -0.955930     6.746942
 H    11.375443    -1.001989     7.044470
 C     9.586188    -2.127463     6.610763
 H    10.047155    -3.091715     6.803581
 C     8.241543    -2.061650     6.225854
 H     7.662315    -2.974816     6.123383
 C     7.643518    -0.832454     5.976418
 H     6.602805    -0.758913     5.678934
 H     8.050644     4.234416     4.394506
 H     4.446459     2.719884     7.113397
 H     7.020849     4.228686     7.188057
 H     4.387706     5.845857     7.274199
 H     6.685355     6.827958     5.480564
