   72
scf done: -1219.581136
 N     1.591094     0.571735     0.207704
 N    -1.487377     0.513410     0.208488
 C     3.986860    -3.119100     0.295899
 H     3.682513    -4.138021     0.528429
 C     3.029514    -2.222169    -0.180317
 C    -3.325719    -0.947601    -0.505151
 C     3.407761    -0.899786    -0.481295
 C     0.962846     1.805297     0.174843
 C     2.360204     0.079636    -0.952595
 H     2.820620     0.914544    -1.485550
 H     1.669826    -0.399997    -1.652606
 C     5.317401    -2.735912     0.488072
 B    -1.445745     3.110520    -0.690454
 C    -0.911581     1.769588     0.178061
 B     0.016510     2.204573    -1.192051
 C    -5.576454    -1.167997     0.366109
 H    -6.502637    -0.701292     0.693847
 C     4.736235    -0.487314    -0.276238
 C    -3.195477    -2.348000    -0.494176
 C     5.667809    -1.416435     0.200886
 H     6.695006    -1.092908     0.358781
 C    -2.190761    -0.054898    -0.957887
 H    -1.476256    -0.603490    -1.575789
 H    -2.584138     0.758330    -1.574759
 B     1.453559     3.158692    -0.694420
 B     0.022790     2.191048     1.555775
 C    -4.530420    -0.354594    -0.070716
 B    -0.010108     3.979414    -1.244766
 C    -4.269114    -3.129586    -0.053025
 H    -4.164167    -4.211871    -0.050941
 C    -5.465931    -2.561401     0.384065
 B    -1.440362     3.097417     1.075796
 B     1.455718     3.145908     1.069458
 C     6.343045    -3.718525     0.998964
 H     6.602166    -4.462984     0.235120
 H     5.963928    -4.266338     1.868703
 H     7.267017    -3.210362     1.292189
 C     1.594759    -2.663342    -0.348996
 H     1.413023    -3.602318     0.181523
 H     1.342608    -2.826181    -1.404960
 H     0.906475    -1.904707     0.037918
 B    -0.899616     4.541645     0.201945
 C    -1.930296    -3.034655    -0.954363
 H    -1.963019    -4.104605    -0.729124
 H    -1.045607    -2.618973    -0.466611
 H    -1.782493    -2.933318    -2.037547
 B     0.864930     4.569595     0.198953
 C    -4.713125     1.144594    -0.100095
 H    -5.645776     1.433727     0.391693
 H    -4.744382     1.518356    -1.131166
 H    -3.889797     1.666338     0.395902
 B    -0.004472     3.962614     1.636042
 C    -6.604618    -3.420601     0.877783
 H    -6.701115    -3.362476     1.969498
 H    -6.451818    -4.471920     0.615161
 H    -7.561355    -3.097328     0.452316
 C     5.187711     0.932814    -0.537670
 H     6.246244     1.043421    -0.289704
 H     4.629454     1.662500     0.060943
 H     5.065370     1.220970    -1.588882
 H     0.028668     1.446435    -2.095791
 H    -2.433373     2.926804     1.700031
 H     0.038252     1.412382     2.446824
 H     1.487297     5.579311     0.201136
 H    -2.439215     2.973371    -1.318605
 H     2.458664     3.009914     1.687531
 H    -1.559169     5.527736     0.207365
 H    -0.023561     4.557693    -2.279923
 H     2.449487     3.063672    -1.326830
 H    -0.014231     4.520785     2.682416
 H     2.044824     0.388580     1.094233
 H    -1.905275     0.280982     1.099534
