   54
scf done:  -983.643195
 B    -1.220630     2.069182     0.000000
 B    -0.750633     3.013266     1.451219
 B     1.015765     3.063053     1.449748
 B     1.533072     2.158622     0.000000
 B    -1.327349     3.843574     0.000000
 B     0.095258     4.466685     0.882953
 B     1.551004     3.925651     0.000000
 C     0.171612     1.701513     0.932518
 N     0.268860     0.449931     1.522106
 C    -0.825092    -0.107800     2.321566
 H    -1.693523    -0.227177     1.664330
 H    -1.123693     0.566104     3.135292
 C    -0.406774    -1.450322     2.879451
 C    -0.630152    -1.776010     4.220129
 H    -1.102802    -1.051671     4.878970
 C    -0.249517    -3.024509     4.716773
 H    -0.425143    -3.266313     5.761227
 C     0.365105    -3.955716     3.879148
 H     0.664592    -4.924434     4.268575
 C     0.598050    -3.634112     2.540236
 H     1.079804    -4.351101     1.881479
 C     0.211515    -2.390655     2.046259
 H     0.391190    -2.128383     1.009484
 H    -2.099565     1.282401     0.000000
 H     2.574717     4.524077     0.000000
 H    -1.377469     2.865534     2.444754
 H     2.453235     1.413444     0.000000
 H    -2.383542     4.382540     0.000000
 H     1.645015     2.930890     2.445512
 H     0.059859     5.464919     1.522555
 H     1.177052     0.288952     1.941503
 B    -0.750633     3.013266    -1.451219
 B     1.015765     3.063053    -1.449748
 B     0.095258     4.466685    -0.882953
 C     0.171612     1.701513    -0.932518
 N     0.268860     0.449931    -1.522106
 C    -0.825092    -0.107800    -2.321566
 H    -1.693523    -0.227177    -1.664330
 H    -1.123693     0.566104    -3.135292
 C    -0.406774    -1.450322    -2.879451
 C    -0.630152    -1.776010    -4.220129
 H    -1.102802    -1.051671    -4.878970
 C    -0.249517    -3.024509    -4.716773
 H    -0.425143    -3.266313    -5.761227
 C     0.365105    -3.955716    -3.879148
 H     0.664592    -4.924434    -4.268575
 C     0.598050    -3.634112    -2.540236
 H     1.079804    -4.351101    -1.881479
 C     0.211515    -2.390655    -2.046259
 H     0.391190    -2.128383    -1.009484
 H    -1.377469     2.865534    -2.444754
 H     1.645015     2.930890    -2.445512
 H     0.059859     5.464919    -1.522555
 H     1.177052     0.288952    -1.941503
