   70
FINAL HEAT OF FORMATION = -1597.793928
 H     6.180672     5.955246    23.009722
 C     7.911350     4.577246    25.394196
 C     8.115037     5.979555    25.488950
 C     7.177861     6.788363    24.792563
 C     7.346603     8.169677    24.866299
 C     6.662206     4.358166    24.505678
 C     6.174892     5.825376    24.106811
 H     6.659789     8.856929    24.353898
 H     6.907503     3.766524    23.605244
 H     5.869833     3.814494    25.051056
 H     5.141419     6.002171    24.455067
 H    12.667340     7.812455    22.989116
 C    10.095660     5.701886    26.915013
 C     9.901772     4.317038    26.831997
 C     8.806155     3.749707    26.069384
 C     8.445843     8.735813    25.625441
 C     9.349235     7.913537    26.296865
 C     9.167070     6.517606    26.222720
 C    11.148058     6.621371    27.610795
 C    11.124906     6.418134    29.165878
 C    10.243595     5.474618    29.746057
 C    10.108976     5.338173    31.136262
 C    10.848157     6.170751    31.997008
 C    11.730442     7.108557    31.446386
 C    11.907009     7.233230    30.040942
 C    12.904771     8.232093    29.585893
 C    13.674701     8.182588    28.475005
 C    13.710152     7.117379    27.443139
 C    14.958193     6.910190    26.793646
 C    15.128646     5.909547    25.829046
 C    14.033409     5.094511    25.487683
 C    12.785419     5.309570    26.092942
 C    12.585847     6.318829    27.065585
 C    10.616268     8.186485    27.158243
 C    10.064679     8.939947    28.408968
 C     8.942336     8.294581    29.003027
 C     8.312843     8.778138    30.154565
 C    12.603452     8.431663    23.892774
 C    11.738251     8.064964    24.928984
 C    11.620420     8.810857    26.137311
 H    10.580280     3.621071    27.342819
 H     8.706833     2.655982    26.039999
 H     9.621456     4.856005    29.091616
 H     9.406595     4.599708    31.543914
 H    10.734328     6.088984    33.085398
 H    12.315439     7.763685    32.104405
 H    13.091152     9.047226    30.298302
 H    14.439959     8.960948    28.351319
 H    15.802754     7.553692    27.071268
 H    16.102800     5.766778    25.344282
 H    14.140453     4.308707    24.728749
 H    11.933110     4.702439    25.772713
 H     8.560178     7.376372    28.544317
 H     7.460486     8.234114    30.581124
 H    11.132530     7.161162    24.805802
 H    14.070935     9.903790    23.223663
 C     8.785224     9.962480    30.754088
 C     9.865452    10.629810    30.172219
 C    10.524448    10.149912    28.997628
 C    11.635452    11.002761    28.517721
 C    12.396241    10.941561    27.400849
 C    12.392685     9.999130    26.258917
 C    13.266755    10.359628    25.186266
 C    13.385266     9.596036    24.023212
 H     8.550782     9.828236    25.655668
 H     8.307952    10.360320    31.658523
 H    10.232728    11.561198    30.621473
 H    11.844559    11.844321    29.192608
 H    13.142329    11.740249    27.287028
 H    13.860531    11.276051    25.295329
