  212
scf done: -3313.447180
 C     0.828522    -0.001616     0.007186
 C    -0.828522     0.001616    -0.007186
 C     1.443148     0.339948    -1.410430
 C    -1.443148    -0.339948     1.410430
 C    -1.425435     1.406710    -0.422449
 C     1.425435    -1.406710     0.422449
 C     1.411370     1.065720     1.019015
 C    -1.411370    -1.065720    -1.019015
 C     1.013047     1.097506     2.376422
 C    -1.013047    -1.097506    -2.376422
 C    -1.026774    -1.478815     2.147367
 C     1.026774     1.478815    -2.147367
 C     1.035762    -2.598802    -0.231536
 C    -1.035762     2.598802     0.231536
 C     2.442864     1.942140     0.621198
 C    -2.442864    -1.942140    -0.621198
 C    -2.531286     0.400253     1.909550
 C     2.531286    -0.400253    -1.909550
 C     2.479245    -1.490765     1.357170
 C    -2.479245     1.490765    -1.357170
 C     1.555734     2.022304     3.291243
 C    -1.555734    -2.022304    -3.291243
 C    -1.632140    -1.834383     3.364035
 C     1.632140     1.834383    -3.364035
 C     1.625287    -3.842758     0.068699
 C    -1.625287     3.842758    -0.068699
 C     3.032920     2.861353     1.516390
 C    -3.032920    -2.861353    -1.516390
 C    -3.184170     0.055284     3.117011
 C     3.184170    -0.055284    -3.117011
 C     3.113442    -2.715836     1.661541
 C    -3.113442     2.715836    -1.661541
 C     2.564410     2.906910     2.846489
 C    -2.564410    -2.906910    -2.846489
 C    -2.716783    -1.055869     3.840633
 C     2.716783     1.055869    -3.840633
 C     2.668745    -3.889652     1.019377
 C    -2.668745     3.889652    -1.019377
 H     0.263775     0.385137     2.723280
 H    -0.263775    -0.385137    -2.723280
 H    -0.217674    -2.089130     1.749680
 H     0.217674     2.089130    -1.749680
 H     0.255471    -2.552689    -0.991044
 H    -0.255471     2.552689     0.991044
 H     2.808746     1.897958    -0.406618
 H    -2.808746    -1.897958     0.406618
 H    -2.898860     1.256448     1.339818
 H     2.898860    -1.256448    -1.339818
 H     2.826613    -0.578645     1.848251
 H    -2.826613     0.578645    -1.848251
 C     1.067942     1.976417     4.776396
 C    -1.067942    -1.976417    -4.776396
 C    -1.167620    -3.087453     4.173688
 C     1.167620     3.087453    -4.173688
 C     1.089866    -5.112949    -0.667247
 C    -1.089866     5.112949     0.667247
 C     4.246509     3.713168     1.019114
 C    -4.246509    -3.713168    -1.019114
 C    -4.426911     0.895894     3.552521
 C     4.426911    -0.895894    -3.552521
 C     4.305854    -2.704409     2.671264
 C    -4.305854     2.704409    -2.671264
 H     3.004610     3.618154     3.549114
 H    -3.004610    -3.618154    -3.549114
 H    -3.204274    -1.340862     4.777557
 H     3.204274     1.340862    -4.777557
 H     3.142611    -4.845589     1.253205
 H    -3.142611     4.845589    -1.253205
 C     4.989231    -0.441166    -4.938075
 C    -4.989231     0.441166     4.938075
 C    -4.869900     4.137726    -2.936374
 C     4.869900    -4.137726     2.936374
 C     4.653497     4.814774     2.051050
 C    -4.653497    -4.814774    -2.051050
 C     5.547839    -0.716172    -2.467966
 C    -5.547839     0.716172     2.467966
 C    -5.453493     1.812994    -2.077441
 C     5.453493    -1.812994     2.077441
 C     5.458615     2.736234     0.810466
 C    -5.458615    -2.736234    -0.810466
 C     4.037967    -2.411891    -3.646431
 C    -4.037967     2.411891     3.646431
 C    -3.831778     2.095369    -4.035906
 C     3.831778    -2.095369     4.035906
 C     3.917515     4.413458    -0.344618
 C    -3.917515    -4.413458     0.344618
 C     0.834552     2.666937    -5.647078
 C    -0.834552    -2.666937     5.647078
 C    -1.869046     6.404803     0.260358
 C     1.869046    -6.404803    -0.260358
 C     1.627703     3.170166     5.616409
 C    -1.627703    -3.170166    -5.616409
 C    -0.105550     3.747106    -3.550362
 C     0.105550    -3.747106     3.550362
 C     0.425090     5.299454     0.307687
 C    -0.425090    -5.299454    -0.307687
 C    -0.498166     2.023911     4.833678
 C     0.498166    -2.023911    -4.833678
 C     2.327964     4.143138    -4.179571
 C    -2.327964    -4.143138     4.179571
 C    -1.219500     4.911057     2.216526
 C     1.219500    -4.911057    -2.216526
 C     1.559926     0.630953     5.415012
 C    -1.559926    -0.630953    -5.415012
 H     0.508337     3.545396    -6.223867
 H    -0.508337    -3.545396     6.223867
 H    -1.456533     7.267670     0.804062
 H     1.456533    -7.267670    -0.804062
 H     1.225996     3.118256     6.639248
 H    -1.225996    -3.118256    -6.639248
 H     1.714581     2.233097    -6.142444
 H    -1.714581    -2.233097     6.142444
 H    -2.936206     6.315915     0.511264
 H     2.936206    -6.315915    -0.511264
 H     2.724979     3.132735     5.676330
 H    -2.724979    -3.132735    -5.676330
 H     0.026028     1.921387    -5.656856
 H    -0.026028    -1.921387     5.656856
 H    -1.773002     6.598378    -0.817965
 H     1.773002    -6.598378     0.817965
 H     1.328984     4.132080     5.174305
 H    -1.328984    -4.132080    -5.174305
 H     2.027806     5.033716    -4.752252
 H    -2.027806    -5.033716     4.752252
 H    -0.859467     5.806692     2.744695
 H     0.859467    -5.806692    -2.744695
 H     1.203530     0.549415     6.453065
 H    -1.203530    -0.549415    -6.453065
 H     2.565975     4.451096    -3.150386
 H    -2.565975    -4.451096     3.150386
 H    -0.618909     4.050478     2.543337
 H     0.618909    -4.050478    -2.543337
 H     1.175402    -0.226216     4.843158
 H    -1.175402     0.226216    -4.843158
 H     3.235107     3.721858    -4.636639
 H    -3.235107    -3.721858     4.636639
 H    -2.268398     4.734702     2.496981
 H     2.268398    -4.734702    -2.496981
 H     2.659123     0.585619     5.416287
 H    -2.659123    -0.585619    -5.416287
 H    -0.421516     4.596235    -4.174173
 H     0.421516    -4.596235     4.174173
 H     0.831732     6.180431     0.826831
 H    -0.831732    -6.180431    -0.826831
 H    -0.833088     1.977994     5.880663
 H     0.833088    -1.977994    -5.880663
 H    -0.935537     3.028595    -3.493521
 H     0.935537    -3.028595     3.493521
 H     0.547135     5.443591    -0.776243
 H    -0.547135    -5.443591     0.776243
 H    -0.867969     2.958853     4.389690
 H     0.867969    -2.958853    -4.389690
 H     0.096767     4.120681    -2.536776
 H    -0.096767    -4.120681     2.536776
 H     1.003905     4.415499     0.611509
 H    -1.003905    -4.415499    -0.611509
 H    -0.945226     1.179835     4.290401
 H     0.945226    -1.179835    -4.290401
 H     5.848579    -1.071947    -5.209978
 H    -5.848579     1.071947     5.209978
 H    -5.697551     4.077564    -3.658675
 H     5.697551    -4.077564     3.658675
 H     5.480161     5.413935     1.641283
 H    -5.480161    -5.413935    -1.641283
 H     4.224205    -0.540880    -5.722004
 H    -4.224205     0.540880     5.722004
 H    -4.092268     4.793343    -3.354833
 H     4.092268    -4.793343     3.354833
 H     3.806909     5.485872     2.258284
 H    -3.806909    -5.485872    -2.258284
 H     5.327048     0.604719    -4.902622
 H    -5.327048    -0.604719     4.902622
 H    -5.253194     4.588535    -2.009468
 H     5.253194    -4.588535     2.009468
 H     4.990574     4.366704     2.996799
 H    -4.990574    -4.366704    -2.996799
 H     6.441416    -1.295099    -2.746492
 H    -6.441416     1.295099     2.746492
 H    -6.309590     1.786932    -2.768532
 H     6.309590    -1.786932     2.768532
 H     6.342398     3.294063     0.465334
 H    -6.342398    -3.294063    -0.465334
 H     5.828727     0.344256    -2.381013
 H    -5.828727    -0.344256     2.381013
 H    -5.792608     2.219962    -1.112901
 H     5.792608    -2.219962     1.112901
 H     5.708442     2.229661     1.754865
 H    -5.708442    -2.229661    -1.754865
 H     5.196165    -1.065106    -1.485953
 H    -5.196165     1.065106     1.485953
 H    -5.101844     0.783404    -1.916643
 H     5.101844    -0.783404     1.916643
 H     5.209812     1.971464     0.059698
 H    -5.209812    -1.971464    -0.059698
 H     4.919806    -3.009014    -3.923289
 H    -4.919806     3.009014     3.923289
 H    -4.669686     2.068414    -4.748647
 H     4.669686    -2.068414     4.748647
 H     4.800306     4.966057    -0.699354
 H    -4.800306    -4.966057     0.699354
 H     3.656555    -2.779063    -2.683113
 H    -3.656555     2.779063     2.683113
 H    -3.458991     1.071310    -3.896950
 H     3.458991    -1.071310     3.896950
 H     3.639622     3.677359    -1.111975
 H    -3.639622    -3.677359     1.111975
 H     3.259446    -2.560161    -4.408345
 H    -3.259446     2.560161     4.408345
 H    -3.023973     2.704657    -4.467773
 H     3.023973    -2.704657     4.467773
 H     3.086847     5.122388    -0.223320
 H    -3.086847    -5.122388     0.223320
