   66
FINAL HEAT OF FORMATION = -2134.166236
Cl     9.490425     8.800376     3.541761
Cl     4.398974    10.515804    -0.055869
 C     7.094346    10.656168     0.734674
 C     7.734467    11.952062     0.183984
 C     9.163650    11.306752     0.831691
 C     8.221701    10.285534     1.531260
 C     8.141221     9.220275     2.409227
 C     6.933463     8.408678     2.454923
 C     6.825612     7.233280     3.274577
 C     5.677374     6.454891     3.263724
 C     4.565910     6.814676     2.440754
 C     4.625818     7.948685     1.645959
 C     5.802851     8.772067     1.621861
 C     5.898378     9.960555     0.793639
 C     6.997327    13.163487     0.895449
 C     6.090100    12.933690     1.963482
 C     5.346446    13.980431     2.534167
 C     5.482693    15.294143     2.050582
 C     6.363857    15.540615     0.983124
 C     7.101235    14.489233     0.408886
 C     7.677284    12.261028    -1.338882
 C     6.654488    11.738319    -2.164524
 C     6.586376    12.075008    -3.528461
 C     7.531872    12.948355    -4.096622
 C     8.541837    13.492377    -3.282775
 C     8.608676    13.156688    -1.918828
 C     9.995540    12.247479     1.829920
 C    10.322281    13.631101     1.177806
 C    11.339529    11.622268     2.340843
 C     9.151363    12.499452     3.130166
 C    10.002844    10.407750    -0.264176
 C     9.091976     9.707300    -1.346899
 C    11.088296    11.216310    -1.051504
 C    10.715074     9.187303     0.433157
 H     7.685700     6.961587     3.898871
 H     5.619053     5.552578     3.886733
 H     3.664782     6.187069     2.438367
 H     3.782083     8.240249     1.007827
 H     5.953974    11.920688     2.354895
 H     4.651723    13.761316     3.355475
 H     4.898040    16.112273     2.490465
 H     6.469440    16.555381     0.577978
 H     7.736171    14.704593    -0.455788
 H     5.903905    11.064863    -1.740152
 H     5.787091    11.650110    -4.149923
 H     7.478766    13.207666    -5.161857
 H     9.281432    14.183448    -3.707729
 H     9.393401    13.597143    -1.297865
 H     9.401114    14.169492     0.926550
 H    10.931814    13.515284     0.272865
 H    10.888963    14.240230     1.896824
 H    12.061370    11.450701     1.533894
 H    11.791206    12.328195     3.053226
 H    11.148939    10.680027     2.871393
 H     9.716396    13.161733     3.800859
 H     8.968907    11.551995     3.654898
 H     8.190086    12.971250     2.905044
 H     8.213009     9.228091    -0.895962
 H     8.756016    10.401347    -2.121889
 H     9.691429     8.924617    -1.832733
 H    10.630285    12.007032    -1.655989
 H    11.605865    10.526504    -1.734191
 H    11.838818    11.659896    -0.386578
 H    11.357597     8.697116    -0.311881
 H    11.336032     9.468053     1.286149
 H     9.971912     8.453434     0.769748
