   66
FINAL HEAT OF FORMATION = -2134.185262
Cl    14.093030     3.564950     8.237594
Cl    20.214799     5.622691     8.862364
 C    18.255139     3.635820     8.480384
 C    18.824098     2.191920     8.212220
 C    17.250478     1.659840     8.413536
 C    16.892527     3.183528     8.382691
 C    15.830064     4.067500     8.393100
 C    16.081170     5.489863     8.544397
 C    15.015336     6.450993     8.570102
 C    15.277245     7.799672     8.750288
 C    16.622001     8.252348     8.913407
 C    17.675070     7.349489     8.890622
 C    17.444547     5.944880     8.704795
 C    18.533025     4.976712     8.658306
 C    19.886960     1.664400     9.210061
 C    20.420192     2.510275    10.208729
 C    21.399113     2.048354    11.107965
 C    21.865871     0.724423    11.029190
 C    21.335489    -0.135588    10.049300
 C    20.354221     0.327323     9.155337
 C    19.392654     2.188087     6.684860
 C    18.366470     2.812505     5.675938
 C    20.688574     3.068720     6.669222
 C    19.817007     0.795576     6.106268
 C    16.669194     0.720286     7.319027
 C    15.573026     1.102633     6.510432
 C    15.014255     0.212829     5.574138
 C    15.538012    -1.083274     5.421535
 C    16.627547    -1.480808     6.217403
 C    17.183365    -0.590519     7.153427
 C    16.792926     1.055766     9.862673
 C    17.062144     2.077699    11.016781
 C    15.247445     0.774564     9.817860
 C    17.454560    -0.304891    10.268593
 H    13.989880     6.080930     8.448569
 H    14.451227     8.522792     8.770280
 H    16.819040     9.322678     9.057237
 H    18.711412     7.686134     9.012504
 H    20.081370     3.548473    10.272585
 H    21.797809     2.730407    11.870129
 H    22.631599     0.362727    11.727413
 H    21.679472    -1.176019     9.983308
 H    19.936307    -0.367899     8.421913
 H    18.040596     3.810611     5.994878
 H    18.853949     2.906416     4.695242
 H    17.483341     2.172375     5.561313
 H    21.431886     2.669016     7.373069
 H    21.121504     3.056298     5.658964
 H    20.472545     4.106783     6.944555
 H    18.987604     0.080954     6.097656
 H    20.140587     0.952859     5.067128
 H    20.664495     0.372416     6.658472
 H    15.132886     2.097181     6.627337
 H    14.161042     0.536941     4.963928
 H    15.101676    -1.777605     4.691880
 H    17.050650    -2.488324     6.111348
 H    18.030698    -0.923173     7.758699
 H    18.130256     2.320366    11.086912
 H    16.491333     3.003319    10.865915
 H    16.745208     1.630028    11.969412
 H    14.679869     1.665277     9.525994
 H    15.020829    -0.032308     9.108070
 H    14.917946     0.457688    10.817751
 H    17.087218    -0.570156    11.270452
 H    17.162705    -1.110093     9.584144
 H    18.546403    -0.239257    10.309899
