   62
FINAL HEAT OF FORMATION = -6461.510886
Br     6.254977     2.683094     5.843078
Br     0.280537    -0.261123     6.683281
 C     4.031751     0.835378     3.598612
 C     2.507227     0.167159     3.774495
 C     2.635765     0.613464     5.270612
 C     1.955370     0.601940     6.471686
 C     2.595941     1.289679     7.588667
 C     1.950881     1.377072     8.867561
 C     2.530262     2.064162     9.921936
 C     3.797678     2.699419     9.748789
 C     4.454209     2.630573     8.528777
 C     3.887348     1.932305     7.410202
 C     4.573423     1.869171     6.120371
 C     3.924218     1.193852     5.108763
 C     5.057286    -0.263567     3.250578
 C     5.058765    -0.844876     1.958827
 C     5.909035    -1.921231     1.658330
 C     6.768376    -2.441326     2.646315
 C     6.767866    -1.877107     3.934203
 C     5.914684    -0.797852     4.233107
 C     4.128164     2.107428     2.716320
 C     3.215890     3.172027     2.927692
 C     3.278803     4.338245     2.148862
 C     4.265904     4.470632     1.151957
 C     5.191379     3.431640     0.950106
 C     5.124047     2.259907     1.727626
 C     2.465225    -1.378757     3.573891
 C     2.845886    -2.242989     4.625534
 C     2.858083    -3.638185     4.449626
 C     2.489951    -4.199195     3.212885
 C     2.098779    -3.351991     2.159843
 C     2.082404    -1.957903     2.339817
 C     1.392560     0.808837     2.903848
 C     0.111232     1.078398     3.430993
 C    -0.913937     1.578587     2.604684
 C    -0.678440     1.810574     1.237789
 C     0.591188     1.531316     0.696789
 C     1.613779     1.032062     1.520256
 H     0.973927     0.886744     8.973109
 H     2.015568     2.125734    10.889690
 H     4.248602     3.245172    10.587589
 H     5.427459     3.115988     8.379876
 H     4.375154    -0.463059     1.190979
 H     5.893909    -2.363409     0.653575
 H     7.428171    -3.287071     2.413320
 H     7.426356    -2.282296     4.713536
 H     5.902908    -0.371407     5.242689
 H     2.442386     3.075165     3.699085
 H     2.554833     5.145661     2.318763
 H     4.315867     5.381941     0.542151
 H     5.972789     3.530196     0.185324
 H     5.853688     1.458186     1.566547
 H     3.138286    -1.814436     5.590868
 H     3.158861    -4.288879     5.281006
 H     2.502715    -5.287806     3.071937
 H     1.803312    -3.777069     1.191520
 H     1.763693    -1.314588     1.512301
 H    -0.091436     0.870014     4.489022
 H    -1.904784     1.780850     3.032164
 H    -1.478651     2.200199     0.595172
 H     0.787280     1.701777    -0.369898
 H     2.599010     0.826675     1.087164
