   28
FINAL HEAT OF FORMATION =  -437.422294
 B     0.378670     6.636569     5.256607
 H     0.844009     6.083716     6.162019
 B    -2.012041     7.607624     3.949376
 H    -3.162192     7.691536     3.820767
 B    -1.219683     6.159209     4.653994
 H    -1.817537     5.235314     5.022097
 B    -0.936513     8.089918     2.558385
 H    -1.354688     8.464192     1.542990
 B     0.275023     5.890960     3.641825
 H     0.632713     4.830942     3.334753
 B     0.556001     8.415464     5.004692
 H     1.143648     9.098924     5.733145
 B     1.432110     7.259988     3.973334
 H     2.573543     7.065706     3.902989
 B     0.635215     8.708493     3.247248
 H     1.218980     9.531885     2.675777
 B    -1.027080     7.754904     5.422053
 H    -1.535782     7.976552     6.439492
 B    -0.900434     8.977896     4.100153
 H    -1.317083    10.054076     4.200864
 C     0.564140     7.184764     2.515144
 C    -1.229498     6.446290     2.982791
 N     1.120910     6.861324     1.241886
 N    -1.786818     5.618560     1.938977
 H    -1.974667     4.653717     2.311884
 H    -2.695645     6.028850     1.605941
 H     0.555863     7.257973     0.452379
 H     1.241936     5.827153     1.115736
