   55
FINAL HEAT OF FORMATION = -1009.278411
 B     0.399846     0.672000    12.423357
 H    -0.727999     0.864512    12.247892
 B     1.096634     0.051351    13.929190
 H     0.386281    -0.260642    14.791117
 B     2.575796     1.027165    14.304106
 H     2.826887     1.298919    15.402480
 B     2.886283     2.224004    13.016309
 H     3.201967     3.319888    13.215202
 B     3.086382     1.400862    11.462126
 H     3.652709     1.939750    10.605620
 B     1.567193     0.484411    11.096679
 H     1.179337     0.426334    10.006400
 B     1.366570    -0.777831    12.367720
 H     0.861027    -1.792413    12.126995
 B     3.770576     0.731522    12.984687
 H     4.910693     0.737523    13.192380
 B     2.996226    -0.345636    11.777244
 H     3.619397    -1.087351    11.141770
 B     2.703650    -0.590590    13.539742
 H     3.134050    -1.494275    14.123157
 N     0.337542     2.849509    13.998961
 N     0.896547     3.302311    11.594473
 C     1.215150     1.753333    13.555656
 C     1.527077     2.000525    11.918207
 C    -0.130301     3.541723    12.730633
 H    -0.231950     4.628919    12.913731
 H    -1.119966     3.128031    12.435757
 C     0.192923     3.277395    10.243224
 H    -0.557524     2.460809    10.192513
 H     0.976232     3.083269     9.484780
 C    -0.486511     4.637157    10.005741
 C     0.268351     5.828679    10.092009
 H     1.340493     5.767822    10.321226
 C    -0.354108     7.074698     9.900456
 H     0.235490     7.998185     9.971289
 C    -1.733991     7.138953     9.618022
 H    -2.219364     8.112316     9.468351
 C    -2.489390     5.954397     9.530603
 H    -3.564717     6.001198     9.313625
 C    -1.867773     4.706520     9.727951
 H    -2.457068     3.781747     9.666562
 C     0.983626     3.799786    14.998012
 H     1.861083     4.323053    14.568338
 H     1.327673     3.172151    15.842439
 C    -0.070399     4.819719    15.462168
 C     0.185632     6.204708    15.387732
 H     1.152508     6.558670    15.005923
 C    -0.794442     7.129173    15.798778
 H    -0.589247     8.206049    15.738969
 C    -2.036540     6.672733    16.278302
 H    -2.802078     7.393446    16.594522
 C    -2.299197     5.289048    16.348401
 H    -3.269374     4.931749    16.718273
 C    -1.319985     4.366010    15.942989
 H    -1.518007     3.286505    15.981618
