   50
FINAL HEAT OF FORMATION =  -969.174078
 B     5.754998     3.538292     3.593549
 B     4.194657     4.432740     3.609011
 B     3.569289     4.427278     5.293546
 B     5.743362     5.308037     3.592671
 B     4.397722     5.862284     4.647418
 C     4.427610     3.074893     4.649789
 C     2.689657     1.645244     3.988372
 H     2.085415     2.542999     3.745203
 N     3.926114     1.690948     4.465487
 C     2.038976     0.322718     3.756391
 C     0.718932     0.270090     3.241780
 H     0.187704     1.204713     3.015477
 C     0.096071    -0.971584     3.024400
 H    -0.926417    -1.009809     2.626079
 C     0.783291    -2.166593     3.318553
 H     0.294306    -3.135597     3.148783
 C     2.098093    -2.121910     3.831260
 H     2.629472    -3.055417     4.059314
 C     2.724897    -0.885214     4.049840
 H     3.746867    -0.822082     4.448837
 H     2.438447     4.279853     5.502950
 H     6.065924     2.784468     2.769130
 H     3.474817     4.290016     2.711335
 H     6.088632     5.889938     2.652103
 H     3.807090     6.835512     4.431303
 B     4.743230     3.530073     6.318773
 B     6.291989     4.444953     6.304271
 B     6.916781     4.450828     4.619146
 B     4.730630     5.299053     6.321804
 B     6.068647     5.873176     5.267750
 C     6.078406     3.085774     5.262271
 C     7.844695     1.664105     5.883194
 H     8.466281     2.561018     6.082207
 N     6.590623     1.708210     5.454301
 C     8.481678     0.335750     6.121630
 C     9.824972     0.262709     6.567941
 H    10.391554     1.188805     6.735748
 C    10.424007    -0.989520     6.792928
 H    11.464650    -1.045131     7.138467
 C     9.688921    -2.172605     6.575667
 H    10.159246    -3.149439     6.752790
 C     8.350142    -2.106955     6.131405
 H     7.781715    -3.031454     5.963995
 C     7.747365    -0.860315     5.904635
 H     6.707236    -0.778105     5.559016
 H     8.049473     4.321269     4.408293
 H     4.442265     2.770540     7.141728
 H     7.014363     4.309947     7.201154
 H     4.377297     5.874848     7.263173
 H     6.645705     6.854249     5.484833
