   72
FINAL HEAT OF FORMATION = -1204.782286
 N    10.574998     9.018240     2.160242
 N     8.550627     6.383294     1.500324
 C    12.590820    11.800448    -0.637149
 H    12.940923    11.609918    -1.659831
 C    11.548509    11.013584    -0.109084
 C     6.974666     6.118577    -0.397920
 C    11.094541    11.255962     1.214900
 C    10.034203     8.331331     3.285683
 C     9.982628    10.370534     1.796816
 H     9.531017    10.835732     2.691089
 H     9.177462    10.203726     1.054928
 C    13.194366    12.823945     0.124233
 B     7.753175     6.654879     4.097741
 C     8.840902     6.677966     2.841020
 B     8.369182     8.292947     3.524001
 C     5.991753     4.037416    -1.218250
 H     5.510769     3.072132    -1.013857
 C    11.702980    12.266917     2.003719
 C     7.240319     6.514815    -1.733920
 C    12.741359    13.041522     1.442256
 H    13.209855    13.826039     2.050070
 C     7.379974     7.007616     0.789595
 H     7.634521     8.032944     0.456375
 H     6.562264     7.074993     1.529619
 B     9.502453     8.937797     4.804322
 B    10.462253     6.604820     3.350596
 C     6.351148     4.866450    -0.138033
 B     8.116674     7.960819     5.257200
 C     6.864790     5.659595    -2.793722
 H     7.068788     5.969549    -3.826642
 C     6.239716     4.419531    -2.555349
 B     9.169755     5.529918     4.072481
 B    10.919313     7.849805     4.621872
 C    14.307446    13.691291    -0.483550
 H    13.871763    14.520836    -1.067067
 H    14.938257    13.096268    -1.161544
 H    14.940456    14.124083     0.305101
 C    10.910644     9.904462    -0.962468
 H    11.506275     9.724674    -1.868729
 H     9.890715    10.189497    -1.271447
 H    10.839623     8.966238    -0.389199
 B     8.684728     6.282671     5.588469
 C     7.930629     7.849860    -2.062153
 H     8.069098     7.944173    -3.148508
 H     8.920057     7.915197    -1.582618
 H     7.329127     8.706979    -1.717200
 B     9.751660     7.632117     5.963110
 C     6.075765     4.407379     1.301534
 H     5.664677     3.388198     1.305416
 H     5.352662     5.076860     1.796375
 H     7.003937     4.422025     1.894685
 B    10.425421     6.206378     5.094673
 C     5.850911     3.490320    -3.716711
 H     6.488767     2.590166    -3.721850
 H     5.968372     4.003321    -4.682289
 H     4.804720     3.159210    -3.617202
 C    11.255728    12.530789     3.451317
 H    11.877369    13.317731     3.900894
 H    11.345285    11.621669     4.067930
 H    10.203740    12.859093     3.487290
 H     7.688784     8.966143     2.872705
 H     9.091995     4.421472     3.738284
 H    11.251280     6.232592     2.585530
 H    10.048715     7.891762     7.052923
 H     6.666884     6.330185     3.855508
 H    12.016709     8.222576     4.679356
 H     8.219388     5.625131     6.421750
 H     7.244985     8.430270     5.858583
 H     9.596441    10.084255     4.955119
 H    11.200475     5.502294     5.590027
 H    11.622816     9.057659     2.208100
 H     9.386494     6.204515     0.898028
