   68
scf done: -1615.417695
 C     1.551468     0.000325     1.101033
 C     2.421653     0.000383     2.185778
 C     3.845532     0.000571     2.018038
 C     4.410406     0.000757     0.752512
 C     3.507596     0.000782    -0.321247
 C     4.136800     0.000700    -1.577006
 C     3.301653     0.000441    -2.682021
 C     1.874675     0.000248    -2.523856
 C     1.297421     0.000284    -1.269380
 C     2.149405     0.000538    -0.162269
 C     5.739428     0.000725     0.103697
 C     5.579497     0.000685    -1.250551
 C     0.019601     0.000064     0.954023
 C    -0.587930     1.262803     1.595420
 C     0.220610     2.217333     2.227407
 C    -0.281517     3.422123     2.705368
 C    -1.627452     3.728570     2.542427
 C    -2.448490     2.799279     1.926003
 C    -1.964053     1.560759     1.478723
 C    -2.953181     0.669400     0.881897
 C    -2.952994    -0.670006     0.881994
 C    -1.963646    -1.561016     1.478993
 C    -2.447847    -2.799508     1.926653
 C    -1.626590    -3.728525     2.543162
 C    -0.280644    -3.421868     2.705762
 C     0.221218    -2.217112     2.227496
 C    -0.587592    -1.262772     1.595522
 C    -0.165175    -0.000041    -0.803330
 C    -0.739950     1.352441    -1.270774
 C     0.077982     2.457705    -0.970140
 C    -0.287066     3.771298    -1.215559
 C    -1.510181     4.038271    -1.821774
 C    -2.316646     2.971414    -2.167188
 C    -1.966098     1.628780    -1.910689
 C    -2.967156     0.667913    -2.359487
 C    -2.966874    -0.669591    -2.359333
 C    -1.965326    -1.629913    -1.910452
 C    -2.315118    -2.972725    -2.166916
 C    -1.508009    -4.039140    -1.821578
 C    -0.285053    -3.771481    -1.215390
 C     0.079229    -2.457667    -0.969920
 C    -0.739292    -1.352863    -1.270580
 H     2.031265     0.000265     3.200448
 H     4.460428     0.000538     2.913989
 H     3.701438     0.000344    -3.692505
 H     1.252162     0.000022    -3.414113
 H     6.690598     0.000716     0.621326
 H     1.285046     2.049686     2.313233
 H     0.392697     4.129804     3.177679
 H    -2.029715     4.676273     2.885659
 H    -3.504330     3.015925     1.787690
 H    -3.821866     1.167063     0.454974
 H    -3.821555    -1.167963     0.455145
 H    -3.503677    -3.016328     1.788532
 H    -2.028650    -4.676196     2.886719
 H     0.393750    -4.129402     3.178034
 H     1.285647    -2.049283     2.313078
 H     1.035402     2.286364    -0.491847
 H     0.382287     4.575707    -0.928551
 H    -1.825178     5.056354    -2.026340
 H    -3.267591     3.160273    -2.657589
 H    -3.854419     1.135470    -2.781555
 H    -3.853947    -1.137625    -2.781276
 H    -3.265966    -3.162145    -2.657285
 H    -1.822440    -5.057386    -2.026215
 H     0.384785    -4.575495    -0.928412
 H     1.036561    -2.285811    -0.491612
 H     6.385509     0.000623    -1.974010
