  212
scf done: -3351.620190
 C     0.831747    -0.023681    -0.004313
 C    -0.831747     0.023681     0.004313
 C     1.453588     0.298608    -1.400715
 C    -1.453588    -0.298608     1.400715
 C    -1.409194     1.417280    -0.402001
 C     1.409194    -1.417280     0.402001
 C     1.436139     1.022930     0.980223
 C    -1.436139    -1.022930    -0.980223
 C     1.073705     1.041929     2.331921
 C    -1.073705    -1.041929    -2.331921
 C    -1.063501    -1.426450     2.145061
 C     1.063501     1.426450    -2.145061
 C     1.014438    -2.603173    -0.232342
 C    -1.014438     2.603173     0.232342
 C     2.441593     1.907899     0.585564
 C    -2.441593    -1.907899    -0.585564
 C    -2.548362     0.417864     1.874035
 C     2.548362    -0.417864    -1.874035
 C     2.478677    -1.509089     1.295939
 C    -2.478677     1.509089    -1.295939
 C     1.581297     1.977569     3.231333
 C    -1.581297    -1.977569    -3.231333
 C    -1.696076    -1.796004     3.326141
 C     1.696076     1.796004    -3.326141
 C     1.608179    -3.835227     0.046274
 C    -1.608179     3.835227    -0.046274
 C     3.017025     2.832712     1.465508
 C    -3.017025    -2.832712    -1.465508
 C    -3.254445     0.045579     3.029847
 C     3.254445    -0.045579    -3.029847
 C     3.121793    -2.718844     1.583644
 C    -3.121793     2.718844    -1.583644
 C     2.546696     2.885094     2.778445
 C    -2.546696    -2.885094    -2.778445
 C    -2.815892    -1.059212     3.747278
 C     2.815892     1.059212    -3.747278
 C     2.667203    -3.879634     0.959893
 C    -2.667203     3.879634    -0.959893
 H     0.377686     0.307867     2.705702
 H    -0.377686    -0.307867    -2.705702
 H    -0.243193    -2.029308     1.794760
 H     0.243193     2.029308    -1.794760
 H     0.230261    -2.578849    -0.973519
 H    -0.230261     2.578849     0.973519
 H     2.813796     1.875711    -0.428663
 H    -2.813796    -1.875711     0.428663
 H    -2.905426     1.278735     1.325448
 H     2.905426    -1.278735    -1.325448
 H     2.855560    -0.612088     1.768569
 H    -2.855560     0.612088    -1.768569
 C     1.095430     1.927692     4.684069
 C    -1.095430    -1.927692    -4.684069
 C    -1.211358    -2.993812     4.148464
 C     1.211358     2.993812    -4.148464
 C     1.055354    -5.088466    -0.642187
 C    -1.055354     5.088466     0.642187
 C     4.200531     3.676847     0.977979
 C    -4.200531    -3.676847    -0.977979
 C    -4.478877     0.873987     3.425911
 C     4.478877    -0.873987    -3.425911
 C     4.322687    -2.700724     2.534911
 C    -4.322687     2.700724    -2.534911
 H     2.952184     3.618870     3.464012
 H    -2.952184    -3.618870    -3.464012
 H    -3.339234    -1.361863     4.648167
 H     3.339234     1.361863    -4.648167
 H     3.144624    -4.826566     1.177985
 H    -3.144624     4.826566    -1.177985
 C     5.116831    -0.378165    -4.726649
 C    -5.116831     0.378165     4.726649
 C    -4.832889     4.110482    -2.848706
 C     4.832889    -4.110482     2.848706
 C     4.547241     4.801731     1.958886
 C    -4.547241    -4.801731    -1.958886
 C     5.525591    -0.783094    -2.301548
 C    -5.525591     0.783094     2.301548
 C    -5.460403     1.903169    -1.872946
 C     5.460403    -1.903169     1.872946
 C     5.414315     2.738160     0.847364
 C    -5.414315    -2.738160    -0.847364
 C     4.065077    -2.343022    -3.617953
 C    -4.065077     2.343022     3.617953
 C    -3.938150     2.022473    -3.860289
 C     3.938150    -2.022473     3.860289
 C     3.918356     4.311844    -0.394021
 C    -3.918356    -4.311844     0.394021
 C     1.059092     2.580654    -5.622164
 C    -1.059092    -2.580654     5.622164
 C    -1.887843     6.336173     0.333629
 C     1.887843    -6.336173    -0.333629
 C     1.545465     3.155062     5.482389
 C    -1.545465    -3.155062    -5.482389
 C    -0.147690     3.505639    -3.657082
 C     0.147690    -3.505639     3.657082
 C     0.383301     5.315832     0.149017
 C    -0.383301    -5.315832    -0.149017
 C    -0.441204     1.857385     4.727572
 C     0.441204    -1.857385    -4.727572
 C     2.237969     4.132460    -4.037633
 C    -2.237969    -4.132460     4.037633
 C    -1.022949     4.887795     2.166815
 C     1.022949    -4.887795    -2.166815
 C     1.666987     0.662509     5.345865
 C    -1.666987    -0.662509    -5.345865
 H     0.668900     3.420044    -6.208268
 H    -0.668900    -3.420044     6.208268
 H    -1.462887     7.198926     0.856790
 H     1.462887    -7.198926    -0.856790
 H     1.139535     3.103175     6.497821
 H    -1.139535    -3.103175    -6.497821
 H     2.012836     2.281406    -6.066686
 H    -2.012836    -2.281406     6.066686
 H    -2.925718     6.218827     0.664225
 H     2.925718    -6.218827    -0.664225
 H     2.635886     3.210410     5.565104
 H    -2.635886    -3.210410    -5.565104
 H     0.362800     1.740266    -5.719683
 H    -0.362800    -1.740266     5.719683
 H    -1.890025     6.565589    -0.737192
 H     1.890025    -6.565589     0.737192
 H     1.186237     4.081975     5.020777
 H    -1.186237    -4.081975    -5.020777
 H     1.930515     4.986299    -4.652468
 H    -1.930515    -4.986299     4.652468
 H    -0.662441     5.800144     2.656040
 H     0.662441    -5.800144    -2.656040
 H     1.303233     0.570378     6.376255
 H    -1.303233    -0.570378    -6.376255
 H     2.324528     4.470477    -2.998922
 H    -2.324528    -4.470477     2.998922
 H    -0.347543     4.073520     2.449027
 H     0.347543    -4.073520    -2.449027
 H     1.364137    -0.235783     4.794260
 H    -1.364137     0.235783    -4.794260
 H     3.229379     3.809658    -4.373282
 H    -3.229379    -3.809658     4.373282
 H    -2.021028     4.660457     2.557531
 H     2.021028    -4.660457    -2.557531
 H     2.762043     0.691893     5.367931
 H    -2.762043    -0.691893    -5.367931
 H    -0.497851     4.313440    -4.309307
 H     0.497851    -4.313440     4.309307
 H     0.831529     6.179111     0.656961
 H    -0.831529    -6.179111    -0.656961
 H    -0.785354     1.873162     5.768746
 H     0.785354    -1.873162    -5.768746
 H    -0.900077     2.708179    -3.664026
 H     0.900077    -2.708179     3.664026
 H     0.403607     5.505837    -0.930782
 H    -0.403607    -5.505837     0.930782
 H    -0.888650     2.710100     4.205185
 H     0.888650    -2.710100    -4.205185
 H    -0.096464     3.900160    -2.636516
 H     0.096464    -3.900160     2.636516
 H     1.004696     4.437666     0.353910
 H    -1.004696    -4.437666    -0.353910
 H    -0.827730     0.942145     4.267125
 H     0.827730    -0.942145    -4.267125
 H     5.980462    -1.003634    -4.974841
 H    -5.980462     1.003634     4.974841
 H    -5.668726     4.050618    -3.553333
 H     5.668726    -4.050618     3.553333
 H     5.359833     5.410435     1.549185
 H    -5.359833    -5.410435    -1.549185
 H     4.411575    -0.430824    -5.563269
 H    -4.411575     0.430824     5.563269
 H    -4.049356     4.725295    -3.305359
 H     4.049356    -4.725295     3.305359
 H     3.685647     5.456743     2.131128
 H    -3.685647    -5.456743    -2.131128
 H     5.468082     0.655200    -4.634905
 H    -5.468082    -0.655200     4.634905
 H    -5.192605     4.621060    -1.949248
 H     5.192605    -4.621060     1.949248
 H     4.882990     4.411194     2.924938
 H    -4.882990    -4.411194    -2.924938
 H     6.408475    -1.381516    -2.554004
 H    -6.408475     1.381516     2.554004
 H    -6.333305     1.862204    -2.534644
 H     6.333305    -1.862204     2.534644
 H     6.297494     3.296295     0.515510
 H    -6.297494    -3.296295    -0.515510
 H     5.844293     0.254565    -2.154248
 H    -5.844293    -0.254565     2.154248
 H    -5.764515     2.374182    -0.931865
 H     5.764515    -2.374182     0.931865
 H     5.643908     2.266495     1.808985
 H    -5.643908    -2.266495    -1.808985
 H     5.125859    -1.151901    -1.351127
 H    -5.125859     1.151901     1.351127
 H    -5.151398     0.875591    -1.652918
 H     5.151398    -0.875591     1.652918
 H     5.216260     1.943665     0.119468
 H    -5.216260    -1.943665    -0.119468
 H     4.939010    -2.950267    -3.880184
 H    -4.939010     2.950267     3.880184
 H    -4.805268     1.987452    -4.529767
 H     4.805268    -1.987452     4.529767
 H     4.801680     4.866007    -0.730898
 H    -4.801680    -4.866007     0.730898
 H     3.624751    -2.760598    -2.706333
 H    -3.624751     2.760598     2.706333
 H    -3.592839     0.995508    -3.706486
 H     3.592839    -0.995508     3.706486
 H     3.688670     3.563659    -1.159258
 H    -3.688670    -3.563659     1.159258
 H     3.327269    -2.434753    -4.422398
 H    -3.327269     2.434753     4.422398
 H    -3.139296     2.576153    -4.365863
 H     3.139296    -2.576153     4.365863
 H     3.079271     5.013003    -0.340568
 H    -3.079271    -5.013003     0.340568
