   66
scf done: -2158.411245
Cl     2.825560     2.595416     0.584841
Cl     0.763898    -3.210503    -0.666587
 C     0.447873    -0.526109    -0.365383
 C    -0.999741    -0.257753     0.024368
 C    -0.521050     1.370933     0.065906
 C     0.891519     0.780587    -0.067007
 C     2.225964     1.054916     0.028441
 C     3.177610     0.029756    -0.294304
 C     4.575334     0.272961    -0.294316
 C     5.470341    -0.720012    -0.602055
 C     5.013496    -2.015652    -0.920174
 C     3.669714    -2.289592    -0.923597
 C     2.715701    -1.285972    -0.618470
 C     1.309949    -1.558004    -0.587360
 C    -1.235402    -1.014018     1.369593
 C    -0.156996    -1.430339     2.167820
 C    -0.347382    -2.142611     3.346131
 C    -1.629578    -2.475284     3.770904
 C    -2.711103    -2.092284     2.988146
 C    -2.513969    -1.386983     1.802855
 C    -2.103430    -0.641301    -0.952613
 C    -1.884481    -1.570068    -1.972175
 C    -2.897499    -1.918473    -2.860771
 C    -4.159710    -1.343199    -2.750907
 C    -4.396945    -0.420493    -1.736332
 C    -3.380553    -0.080342    -0.847854
 C    -0.870980     2.181589     1.391408
 C    -2.377389     2.116520     1.706581
 C    -0.489571     3.681314     1.373954
 C    -0.138658     1.629157     2.637995
 C    -0.783220     2.174869    -1.321436
 C    -0.736479     1.306062    -2.606022
 C    -2.123870     2.931292    -1.409784
 C     0.361251     3.193673    -1.556584
 H     4.932141     1.266604    -0.052569
 H     6.534030    -0.505484    -0.601367
 H     5.725433    -2.797317    -1.164075
 H     3.316748    -3.284560    -1.167263
 H     0.859481    -1.173491     1.892480
 H     0.518054    -2.436931     3.931492
 H    -1.780709    -3.033012     4.689585
 H    -3.722163    -2.352846     3.285412
 H    -3.386232    -1.145081     1.210079
 H    -0.899732    -1.997401    -2.108211
 H    -2.690946    -2.635146    -3.649535
 H    -4.948334    -1.608356    -3.447760
 H    -5.373880     0.042065    -1.634132
 H    -3.585005     0.644396    -0.067240
 H    -2.716176     1.088100     1.843691
 H    -2.995616     2.598015     0.946253
 H    -2.557538     2.639126     2.652851
 H    -0.937266     4.255297     0.565248
 H    -0.849194     4.117774     2.311631
 H     0.592296     3.824860     1.347944
 H    -0.159758     2.394528     3.420842
 H     0.912125     1.399435     2.437181
 H    -0.616892     0.742135     3.048199
 H     0.042703     0.538922    -2.581668
 H    -1.689418     0.831568    -2.834725
 H    -0.503178     1.973002    -3.442911
 H    -2.980342     2.263944    -1.312171
 H    -2.184513     3.380741    -2.407518
 H    -2.230018     3.741665    -0.689051
 H     0.065536     3.852163    -2.380365
 H     0.607853     3.821187    -0.706182
 H     1.275239     2.679734    -1.868232
