   62
scf done: -1980.939305
 I     3.520220     1.527380    -0.299272
 I    -3.520767     1.525994     0.299882
 C     0.825796    -1.018954    -0.190694
 C    -0.825414    -1.019335     0.190424
 C    -0.693289     0.493294     0.115051
 C    -1.421601     1.642280     0.155374
 C    -0.719164     2.890193     0.064071
 C    -1.388359     4.139970     0.118013
 C    -0.703214     5.326622     0.059152
 C     0.701229     5.326901    -0.058184
 C     1.386822     4.140518    -0.117140
 C     0.718105     2.890478    -0.063257
 C     1.421019     1.642850    -0.154774
 C     0.693140     0.493579    -0.114655
 C     1.072752    -1.566793    -1.583780
 C     1.559411    -0.774546    -2.622921
 C     1.726861    -1.300432    -3.904446
 C     1.404443    -2.626165    -4.166723
 C     0.910755    -3.427799    -3.137909
 C     0.746467    -2.900419    -1.864228
 C     1.774250    -1.575508     0.869154
 C     1.836520    -0.952266     2.124703
 C     2.667928    -1.432985     3.127008
 C     3.474072    -2.546121     2.894490
 C     3.443435    -3.157539     1.647271
 C     2.605149    -2.675108     0.642255
 C    -1.773742    -1.575668    -0.869635
 C    -1.836141    -0.951913    -2.124934
 C    -2.667602    -1.432258    -3.127369
 C    -3.473669    -2.545547    -2.895274
 C    -3.442835    -3.157520    -1.648358
 C    -2.604480    -2.675464    -0.643187
 C    -1.072130    -1.567898     1.583293
 C    -0.745434    -2.901544     1.863133
 C    -0.909293    -3.429466     3.136634
 C    -1.402990    -2.628386     4.165889
 C    -1.725878    -1.302656     3.904205
 C    -1.558817    -0.776212     2.622852
 H    -2.468277     4.144843     0.213879
 H    -1.245152     6.265507     0.105056
 H     1.242801     6.265998    -0.104053
 H     2.466732     4.145799    -0.213072
 H     1.793630     0.269663    -2.444393
 H     2.104497    -0.662684    -4.697553
 H     1.527858    -3.032977    -5.165349
 H     0.639979    -4.460916    -3.331345
 H     0.331304    -3.525062    -1.077255
 H     1.216357    -0.083376     2.324727
 H     2.686662    -0.934669     4.091070
 H     4.126012    -2.923969     3.675769
 H     4.079344    -4.013503     1.443154
 H     2.617925    -3.158646    -0.327259
 H    -1.216013    -0.082924    -2.324633
 H    -2.686440    -0.933564    -4.091236
 H    -4.125708    -2.923038    -3.676643
 H    -4.078605    -4.013662    -1.444562
 H    -2.617158    -3.159452     0.326097
 H    -0.330255    -3.525767     1.075840
 H    -0.638153    -4.462576     3.329597
 H    -1.526049    -3.035648     5.164377
 H    -2.103549    -0.665328     4.697631
 H    -1.793356     0.268010     2.444821
