   62
scf done: -6533.439073
Br     1.742551     3.274176    -0.539845
Br     1.743090    -3.273753     0.540627
 C    -0.848917     0.813588    -0.238911
 C    -0.848901    -0.813708     0.238926
 C     0.663227    -0.682706     0.162813
 C     1.815374    -1.400927     0.256516
 C     3.062988    -0.709903     0.116367
 C     4.309962    -1.377580     0.218223
 C     5.495003    -0.696164     0.109870
 C     5.494876     0.697543    -0.107350
 C     4.309707     1.378672    -0.216082
 C     3.062875     0.710729    -0.114536
 C     1.815175     1.401473    -0.255075
 C     0.663165     0.683059    -0.161425
 C    -1.402153     0.986737    -1.640535
 C    -2.729888     0.626350    -1.906732
 C    -3.258745     0.729478    -3.186110
 C    -2.465004     1.195424    -4.233780
 C    -1.146364     1.554784    -3.984036
 C    -0.619045     1.449305    -2.696881
 C    -1.401023     1.816865     0.771014
 C    -0.767072     1.953849     2.014535
 C    -1.257195     2.822075     2.980247
 C    -2.390561     3.590289     2.721082
 C    -3.012237     3.486749     1.482758
 C    -2.519969     2.612564     0.514474
 C    -1.399811    -1.817036    -0.771586
 C    -0.764666    -1.953729    -2.014524
 C    -1.253767    -2.821871    -2.980835
 C    -2.387238    -3.590315    -2.722869
 C    -3.010085    -3.487094    -1.485105
 C    -2.518878    -2.612972    -0.516225
 C    -1.403341    -0.987135     1.640053
 C    -0.620948    -1.449818     2.696898
 C    -1.149248    -1.555832     3.983590
 C    -2.468188    -1.196850     4.232395
 C    -3.261182    -0.730748     3.184240
 C    -2.731328    -0.627103     1.905299
 H     4.311260    -2.447747     0.389002
 H     6.435084    -1.231573     0.193382
 H     6.434855     1.233166    -0.190530
 H     4.310820     2.448827    -0.386975
 H    -3.347540     0.231541    -1.104059
 H    -4.286611     0.432462    -3.368676
 H    -2.872927     1.270148    -5.236805
 H    -0.516179     1.915022    -4.791160
 H     0.417459     1.718080    -2.524701
 H     0.114350     1.359487     2.236509
 H    -0.750515     2.899050     3.937029
 H    -2.776416     4.270094     3.474215
 H    -3.883865     4.093489     1.257177
 H    -3.012543     2.566179    -0.449511
 H     0.116876    -1.359217    -2.235589
 H    -0.746200    -2.898555    -3.937174
 H    -2.772274    -4.270028    -3.476494
 H    -3.881796    -4.094049    -1.260432
 H    -3.012390    -2.566774     0.447287
 H     0.415778    -1.718228     2.525444
 H    -0.519625    -1.916197     4.791097
 H    -2.876872    -1.271952     5.235085
 H    -4.289267    -0.434035     3.366041
 H    -3.348475    -0.232235     1.102269
