   54
scf done: -1307.069742
 C     0.000037     0.642882     0.844166
 C    -0.000126     0.642631    -0.844052
 C     0.000326    -1.913896     0.674471
 C     0.000180    -1.914187    -0.674269
 C    -1.228255    -0.024833     1.437884
 C    -2.314711     0.638922     1.987777
 H    -2.326451     1.724914     2.020493
 C    -3.394121    -0.096258     2.486314
 H    -4.242544     0.423328     2.920346
 C    -3.389883    -1.484662     2.422498
 H    -4.234520    -2.047958     2.806493
 C    -2.304814    -2.161212     1.857671
 H    -2.302148    -3.244616     1.787467
 C    -1.230623    -1.434357     1.373207
 C     1.228595    -0.024557     1.437640
 C     2.314881     0.639461     1.987540
 H     2.326362     1.725460     2.020236
 C     3.394476    -0.095456     2.486072
 H     4.242749     0.424336     2.920146
 C     3.390581    -1.483858     2.422241
 H     4.235350    -2.046951     2.806241
 C     2.305678    -2.160673     1.857404
 H     2.303293    -3.244077     1.787159
 C     1.231306    -1.434085     1.372951
 C    -1.228545    -0.025144    -1.437442
 C    -2.315072     0.638632    -1.987212
 H    -2.326842     1.724623    -2.019851
 C    -3.394484    -0.096523    -2.485751
 H    -4.242985     0.423073    -2.919620
 C    -3.390187    -1.484942    -2.422126
 H    -4.234769    -2.048218    -2.806265
 C    -2.305073    -2.161515    -1.857421
 H    -2.302382    -3.244925    -1.787295
 C    -1.230945    -1.434675    -1.372816
 C     1.228328    -0.024885    -1.437668
 C     2.314623     0.639156    -1.987574
 H     2.326087     1.725151    -2.020259
 C     3.394190    -0.095729    -2.486182
 H     4.242509     0.424067    -2.920154
 C     3.390258    -1.484145    -2.422495
 H     4.234972    -2.047226    -2.806640
 C     2.305385    -2.160980    -1.857648
 H     2.302976    -3.244393    -1.787555
 C     1.231090    -1.434421    -1.372989
 C    -0.000115     2.147215     0.693579
 C    -0.000270     3.319746     1.434254
 H    -0.000149     3.329053     2.520440
 C    -0.000630     4.510958     0.698992
 H    -0.000763     5.461442     1.223690
 C    -0.000838     4.510735    -0.700075
 H    -0.001120     5.461055    -1.225069
 C    -0.000711     3.319264    -1.434930
 H    -0.000888     3.328119    -2.521114
 C    -0.000319     2.147016    -0.693825
