   23
scf done:  -739.560011
 C     7.878890     5.691287     9.886391
 C     8.067217     6.973088    10.371757
 C     7.045690     7.908341    10.229175
 C     5.856257     7.536117     9.601863
 C     5.720052     6.244160     9.135629
 N     6.722870     5.353235     9.284199
 C     6.529888     3.982901     8.768957
 C     7.560166     2.849103     8.852425
 C     5.427777     3.006068     9.217817
 C     6.248606     3.610907     7.301703
 C     6.293967     2.310346     8.139939
 I     6.029264     0.353711     7.408965
 H     8.625368     4.909445     9.959504
 H     9.004596     7.224620    10.852923
 H     7.173052     8.918777    10.602753
 H     5.039654     8.236152     9.472843
 H     4.829134     5.878029     8.638184
 H     7.761431     2.431217     9.841069
 H     8.452079     2.940120     8.228915
 H     4.402971     3.242533     8.924205
 H     5.505477     2.609944    10.231446
 H     7.064366     3.758644     6.592401
 H     5.271027     3.882156     6.897837
