   72
scf done: -1218.917678
 N     1.553514     0.524935     0.292263
 N    -1.461487     0.453062     0.232417
 C     4.154309    -3.052300     0.362412
 H     3.955322    -4.073407     0.681212
 C     3.091645    -2.255011    -0.058763
 C    -3.320186    -0.949103    -0.521789
 C     3.342501    -0.936396    -0.468241
 C     0.920986     1.761544     0.228979
 C     2.193072    -0.055199    -0.896690
 H     2.546447     0.736307    -1.566134
 H     1.447103    -0.637214    -1.449351
 C     5.461450    -2.568113     0.395389
 B    -1.437287     3.047378    -0.666856
 C    -0.888578     1.720436     0.211539
 B     0.029301     2.157750    -1.159098
 C    -5.616488    -1.148940     0.198876
 H    -6.570274    -0.679958     0.431557
 C     4.645445    -0.417456    -0.408264
 C    -3.164322    -2.336028    -0.378802
 C     5.684580    -1.245170     0.017226
 H     6.694250    -0.842488     0.062342
 C    -2.155939    -0.084399    -0.949515
 H    -1.445301    -0.660491    -1.550360
 H    -2.514404     0.738319    -1.577090
 B     1.443429     3.109518    -0.636313
 B    -0.012275     2.149781     1.608831
 C    -4.555712    -0.348855    -0.222023
 B    -0.008071     3.932469    -1.200423
 C    -4.249552    -3.104725     0.042678
 H    -4.122348    -4.179382     0.154816
 C    -5.485602    -2.530871     0.331024
 B    -1.461442     3.040362     1.096079
 B     1.419916     3.092082     1.127368
 C     6.603828    -3.454878     0.819966
 H     7.012633    -4.000697    -0.037695
 H     6.279006    -4.195237     1.556215
 H     7.418203    -2.870974     1.257235
 C     1.683611    -2.795540    -0.048941
 H     1.632226    -3.746984     0.486136
 H     1.309346    -2.964989    -1.065989
 H     1.003623    -2.087145     0.436003
 B    -0.917122     4.479689     0.229173
 C    -1.841437    -3.003762    -0.661557
 H    -1.855140    -4.046357    -0.334747
 H    -1.026917    -2.494314    -0.140089
 H    -1.602969    -2.993447    -1.731602
 B     0.843720     4.514744     0.250791
 C    -4.750555     1.141974    -0.351308
 H    -5.732462     1.437040     0.025565
 H    -4.683366     1.466401    -1.396214
 H    -3.992714     1.703211     0.205944
 B    -0.043712     3.914419     1.674516
 C    -6.656252    -3.379384     0.756618
 H    -7.286073    -2.852271     1.478689
 H    -6.323129    -4.315859     1.211764
 H    -7.285405    -3.634553    -0.103397
 C     4.932870     1.019151    -0.773277
 H     5.972743     1.271524    -0.553777
 H     4.293097     1.712016    -0.214515
 H     4.760928     1.210936    -1.838416
 H     0.049178     1.401847    -2.069361
 H    -2.466217     2.859352     1.700022
 H    -0.003647     1.360805     2.491819
 H     1.466324     5.523664     0.263644
 H    -2.420966     2.907082    -1.311631
 H     2.417370     2.945360     1.752798
 H    -1.580419     5.462402     0.221221
 H    -0.011626     4.510840    -2.235099
 H     2.450586     2.995696    -1.251193
 H    -0.064683     4.478376     2.717020
 H     2.100638     0.412982     1.138150
 H    -1.925472     0.242810     1.108182
