   68
scf done: -1616.023581
 C     1.529397     0.000039     1.129994
 C     2.389003    -0.000137     2.231942
 C     3.816173    -0.000087     2.088633
 C     4.403113     0.000237     0.827036
 C     3.513899     0.000545    -0.263013
 C     4.171495     0.000512    -1.507514
 C     3.355716     0.000449    -2.635134
 C     1.927303     0.000378    -2.503698
 C     1.316294     0.000327    -1.255751
 C     2.145943     0.000380    -0.128264
 C     5.741938     0.000081     0.206316
 C     5.605589     0.000245    -1.158815
 C    -0.006964     0.000056     0.983858
 C    -0.616020     1.274360     1.615948
 C     0.208956     2.242033     2.219410
 C    -0.281445     3.436085     2.742923
 C    -1.641211     3.727643     2.656150
 C    -2.479627     2.797618     2.060169
 C    -2.005989     1.565294     1.564563
 C    -3.026371     0.672981     1.033924
 C    -3.026515    -0.672333     1.033986
 C    -2.006267    -1.564789     1.564613
 C    -2.480056    -2.797098     2.060132
 C    -1.641781    -3.727211     2.656159
 C    -0.281996    -3.435773     2.743077
 C     0.208566    -2.241789     2.219584
 C    -0.616264    -1.274024     1.616066
 C    -0.165295    -0.000013    -0.841452
 C    -0.733612     1.354868    -1.330599
 C     0.106478     2.465307    -1.097841
 C    -0.223097     3.771066    -1.441821
 C    -1.442154     4.030238    -2.064711
 C    -2.288555     2.964084    -2.315881
 C    -1.972267     1.627180    -1.969874
 C    -3.001867     0.671051    -2.343675
 C    -3.001643    -0.672747    -2.343352
 C    -1.971657    -1.628342    -1.969226
 C    -2.287437    -2.965482    -2.314724
 C    -1.440433    -4.031168    -2.063572
 C    -0.221256    -3.771233    -1.441254
 C     0.107785    -2.465229    -1.097670
 C    -0.732952    -1.355264    -1.330351
 H     1.985675    -0.000297     3.240938
 H     4.416830    -0.000316     2.995596
 H     3.775639     0.000414    -3.638621
 H     1.326086     0.000337    -3.408715
 H     6.684244    -0.000140     0.742235
 H     1.276744     2.081925     2.262240
 H     0.409125     4.143892     3.193889
 H    -2.039640     4.662286     3.041309
 H    -3.544739     3.002628     1.984446
 H    -3.931721     1.166482     0.686306
 H    -3.931988    -1.165652     0.686436
 H    -3.545183    -3.001992     1.984306
 H    -2.040300    -4.661876     3.041176
 H     0.408435    -4.143634     3.194170
 H     1.276364    -2.081800     2.262424
 H     1.062424     2.308417    -0.616571
 H     0.472237     4.575377    -1.218723
 H    -1.726356     5.039903    -2.348136
 H    -3.241066     3.146067    -2.807277
 H    -3.910766     1.137677    -2.719667
 H    -3.910406    -1.139854    -2.719063
 H    -3.240011    -3.148065    -2.805765
 H    -1.724298    -5.041054    -2.346559
 H     0.474603    -4.575131    -1.218313
 H     1.063816    -2.307773    -0.616739
 H     6.424753     0.000161    -1.869087
