   66
scf done: -2158.973468
Cl    -1.995547     3.071130    -0.819785
Cl    -1.949603    -3.059611     0.912532
 C    -0.720656    -0.679991     0.201208
 C     0.809523    -0.722754     0.406545
 C     0.791404     0.745526    -0.447261
 C    -0.733432     0.675379    -0.230543
 C    -1.914201     1.361062    -0.385030
 C    -3.162305     0.678260    -0.185264
 C    -4.417787     1.322754    -0.350439
 C    -5.603463     0.643382    -0.182699
 C    -5.592157    -0.723487     0.161846
 C    -4.395467    -1.381364     0.336732
 C    -3.150698    -0.715255     0.175607
 C    -1.891648    -1.374430     0.385079
 C     1.606634    -1.877214    -0.210754
 C     0.973616    -2.984450    -0.794847
 C     1.698144    -4.063561    -1.307001
 C     3.090229    -4.068755    -1.253056
 C     3.744607    -2.970920    -0.692950
 C     3.013764    -1.896181    -0.185801
 C     1.080761    -0.666109     2.031719
 C     0.002495     0.152341     2.784053
 C     1.021195    -2.113899     2.582583
 C     2.442498    -0.098613     2.504332
 C     1.579349     1.900261     0.175682
 C     0.945378     2.962090     0.837628
 C     1.668855     4.021719     1.391207
 C     3.058783     4.051302     1.299542
 C     3.713450     2.996236     0.661830
 C     2.985183     1.939766     0.116559
 C     1.045047     0.692005    -2.068305
 C     0.136423    -0.332634    -2.790942
 C     0.698076     2.078410    -2.665661
 C     2.497906     0.403330    -2.523074
 H    -4.433773     2.371120    -0.620164
 H    -6.547396     1.163662    -0.318339
 H    -6.527311    -1.260832     0.291627
 H    -4.394727    -2.429833     0.606546
 H    -0.105071    -3.012532    -0.859440
 H     1.163566    -4.900555    -1.748604
 H     3.657006    -4.908043    -1.646657
 H     4.830532    -2.942556    -0.653688
 H     3.559283    -1.051882     0.214694
 H    -0.997042    -0.280002     2.694616
 H     0.258183     0.162057     3.850076
 H    -0.039854     1.192322     2.453961
 H     1.874999    -2.711940     2.252901
 H     1.047925    -2.072298     3.677999
 H     0.110692    -2.638880     2.296095
 H     2.533518     0.976381     2.364322
 H     2.518867    -0.292676     3.581241
 H     3.302068    -0.587959     2.044485
 H    -0.131658     2.971187     0.930054
 H     1.135403     4.824150     1.894078
 H     3.624253     4.875800     1.725139
 H     4.798512     2.985195     0.597418
 H     3.531171     1.118798    -0.327951
 H     0.384686    -1.365353    -2.543975
 H    -0.925675    -0.171451    -2.590013
 H     0.280932    -0.214402    -3.871298
 H    -0.367910     2.298778    -2.615816
 H     1.240460     2.891126    -2.174629
 H     0.982010     2.082204    -3.724923
 H     2.483512     0.253298    -3.609111
 H     3.163707     1.248782    -2.336828
 H     2.927640    -0.494735    -2.081664
