   66
scf done: -1140.760445
 N     1.421767    -0.241605     0.803279
 C     2.702173    -0.727937     0.330936
 C     0.887144     1.006136     0.483138
 C     2.770043    -1.587421    -0.780782
 C     4.028078    -2.049734    -1.195231
 H     4.077369    -2.707858    -2.060750
 C     3.874659    -0.410963     1.058025
 C     5.098844    -0.911725     0.614003
 H     5.997452    -0.666068     1.176387
 C     5.203372    -1.717363    -0.525995
 C     1.553279    -2.075804    -1.531208
 H     0.631074    -1.841137    -1.000210
 H     1.608696    -3.161502    -1.672960
 H     1.495312    -1.624988    -2.530037
 B     0.615908     1.390635    -1.195917
 H     1.045157     0.649937    -2.011903
 B     0.868702     2.362792     1.477857
 H     1.422639     2.248415     2.519509
 C     6.548572    -2.210239    -1.004921
 H     7.170865    -2.553166    -0.170372
 H     7.103927    -1.411427    -1.513791
 H     6.443347    -3.039208    -1.712133
 C     3.838666     0.432470     2.311497
 H     3.589867     1.475800     2.094047
 H     4.813669     0.417568     2.807199
 H     3.096871     0.073136     3.035439
 B     1.704711     2.328172    -0.095890
 H     2.877329     2.216724    -0.222520
 B     0.679906     3.172989    -1.270982
 H     1.179699     3.740811    -2.187070
 B     0.777128     3.772568     0.412835
 H     1.345136     4.773867     0.707514
 H     1.200120    -0.520442     1.752486
 N    -1.421779    -0.241586    -0.803281
 C    -2.702185    -0.727917    -0.330936
 C    -0.887141     1.006149    -0.483135
 C    -2.770047    -1.587423     0.780766
 C    -4.028079    -2.049747     1.195213
 H    -4.077363    -2.707891     2.060717
 C    -3.874676    -0.410935    -1.058014
 C    -5.098858    -0.911707    -0.613992
 H    -5.997469    -0.666042    -1.176367
 C    -5.203378    -1.717365     0.525991
 C    -1.553277    -2.075824     1.531170
 H    -0.631078    -1.841154     1.000164
 H    -1.608699    -3.161523     1.672910
 H    -1.495295    -1.625021     2.530005
 B    -0.615900     1.390638     1.195922
 H    -1.045160     0.649943     2.011905
 B    -0.868683     2.362809    -1.477849
 H    -1.422622     2.248441    -2.519501
 C    -6.548573    -2.210255     1.004915
 H    -7.170882    -2.553137     0.170359
 H    -7.103914    -1.411464     1.513834
 H    -6.443343    -3.039260     1.712085
 C    -3.838696     0.432514    -2.311475
 H    -3.589921     1.475847    -2.094010
 H    -4.813696     0.417597    -2.807181
 H    -3.096890     0.073206    -3.035419
 B    -1.704693     2.328191     0.095899
 H    -2.877312     2.216757     0.222529
 B    -0.679878     3.172992     1.270994
 H    -1.179664     3.740817     2.187084
 B    -0.777093     3.772579    -0.412820
 H    -1.345089     4.773886    -0.707494
 H    -1.200134    -0.520421    -1.752490
