   54
scf done: -1307.561834
 C    -0.000232     0.655356     0.862029
 C    -0.000003     0.656331    -0.861537
 C     0.000487    -1.907408     0.675457
 C     0.000606    -1.906586    -0.678060
 C    -1.227469    -0.019791     1.465422
 C    -2.299295     0.632616     2.068178
 H    -2.316817     1.717728     2.117673
 C    -3.356713    -0.112996     2.605542
 H    -4.188626     0.400490     3.080285
 C    -3.347436    -1.504898     2.532734
 H    -4.171164    -2.077323     2.950849
 C    -2.279079    -2.171255     1.918519
 H    -2.271446    -3.255609     1.849818
 C    -1.227520    -1.433952     1.388952
 C     1.227340    -0.019144     1.465560
 C     2.298714     0.633862     2.068476
 H     2.315611     1.718989     2.117977
 C     3.356469    -0.111156     2.605980
 H     4.187987     0.402781     3.080931
 C     3.348012    -1.503069     2.533117
 H     4.172028    -2.075017     2.951320
 C     2.280138    -2.170013     1.918718
 H     2.273130    -3.254368     1.849969
 C     1.228204    -1.433292     1.389074
 C    -1.227286    -0.018018    -1.465727
 C    -2.299248     0.635174    -2.067416
 H    -2.316723     1.720351    -2.115627
 C    -3.356758    -0.109747    -2.605530
 H    -4.188772     0.404325    -3.079457
 C    -3.347530    -1.501739    -2.534424
 H    -4.171302    -2.073601    -2.953221
 C    -2.279141    -2.168886    -1.921170
 H    -2.271570    -3.253317    -1.853721
 C    -1.227376    -1.432271    -1.391020
 C     1.227620    -0.017452    -1.465569
 C     2.299279     0.636307    -2.067226
 H     2.316171     1.721496    -2.115448
 C     3.357222    -0.108053    -2.605218
 H     4.189014     0.406436    -3.079082
 C     3.348717    -1.500064    -2.534070
 H     4.172882    -2.071488    -2.952696
 C     2.280594    -2.167758    -1.920974
 H     2.273534    -3.252193    -1.853595
 C     1.228407    -1.431690    -1.390872
 C    -0.000575     2.163548     0.697303
 C    -0.001312     3.340903     1.436838
 H    -0.001511     3.353594     2.523522
 C    -0.001727     4.538191     0.703117
 H    -0.002254     5.488040     1.231575
 C    -0.001511     4.538969    -0.698437
 H    -0.001894     5.489381    -1.225891
 C    -0.000837     3.342480    -1.433440
 H    -0.000690     3.356426    -2.520113
 C    -0.000362     2.164314    -0.695168
