   74
scf done: -1244.689094
 C    -0.635773    -0.029915    -0.123308
 C    -0.980646    -1.547153    -0.412088
 C     1.055034     0.185953     0.180256
 C    -2.414546    -1.744696    -0.971914
 C     1.224872     1.316139     1.240716
 C    -1.722071     0.385639     1.007736
 C     1.853504     0.605470    -1.123692
 C    -1.769480     1.899527     1.352583
 C    -2.465920     0.579160    -1.879351
 C     2.784400    -1.718533    -1.577878
 C    -1.034493     0.876106    -1.357470
 C    -3.186555     0.122844     0.440474
 C    -1.593313    -0.505627     2.265166
 C     3.303784     1.074071    -0.776423
 C     3.386499    -0.587021     1.067492
 C    -0.980248     2.391150    -1.031395
 C    -3.434553    -1.354594     0.116178
 C     1.925621    -1.044094     0.715808
 C    -3.487338     0.983745    -0.798740
 C     4.111133    -0.115345    -0.214666
 C     2.670300     1.734074     1.542645
 C     1.971759    -0.543461    -2.155088
 C     4.206035    -1.240419    -1.251822
 C     2.121979    -2.218403    -0.280042
 C    -1.861936    -1.990754     1.932083
 C     3.422915     0.530507     2.112719
 C    -1.985974     2.754972     0.081006
 C     3.317739     2.222837     0.239952
 C    -2.628629    -0.902120    -2.233128
 C    -3.395385     2.476382    -0.461328
 C    -0.885085    -2.456452     0.842170
 C    -3.286468    -2.184651     1.396483
 H    -0.362346     0.672046    -2.194117
 H     2.822249    -2.536184    -2.310180
 H     2.647189     2.550048     2.278281
 H     2.950632     0.199611     3.048631
 H    -1.903288    -1.190135    -3.007830
 H     0.117215    -2.507802     1.254645
 H    -4.502851     0.748337    -1.151139
 H    -2.623743     1.191009    -2.779979
 H     0.985389    -0.891170    -2.478715
 H    -1.246362     2.946896    -1.942360
 H     4.712222    -0.877903    -2.157908
 H     4.806501    -2.072969    -0.858696
 H    -3.872038     0.418377     1.249852
 H    -2.627172     2.056083     2.023689
 H    -4.157054     2.741960     0.285179
 H     4.351066     2.553512     0.416059
 H     0.027039     2.720023    -0.770961
 H     1.372528     1.458925    -1.605065
 H     2.767524     3.091162    -0.150126
 H    -3.629152    -1.085283    -2.650304
 H    -0.304782    -1.918038    -1.184700
 H     2.472177    -0.159129    -3.055777
 H     1.496593    -1.410621     1.654149
 H     3.767257     1.411937    -1.715520
 H    -3.470098    -3.249604     1.195911
 H    -4.034165    -1.862676     2.135328
 H    -0.599842    -0.406455     2.718319
 H    -2.528636    -2.810361    -1.220187
 H     4.464323     0.788609     2.352680
 H     0.756798     1.001807     2.178655
 H    -1.717175    -2.595071     2.837887
 H    -3.593339     3.085485    -1.354846
 H     0.704894     2.211615     0.912020
 H     2.778758    -2.960453     0.196878
 H     1.201088    -2.747929    -0.511812
 H    -0.904156     2.238155     1.917096
 H    -1.884729     3.818729     0.335043
 H    -4.454282    -1.466310    -0.282219
 H     3.903016    -1.471720     1.467751
 H    -1.140603    -3.482604     0.539636
 H    -2.313672    -0.161594     3.022354
 H     5.122079     0.227656     0.051583
