   55
scf done: -1021.579949
 B    -2.277885     0.001782    -1.468212
 H    -1.517462    -0.045477    -2.371811
 B    -3.065604     1.463201    -0.906658
 H    -2.904974     2.466991    -1.515727
 B    -2.970183     1.503274     0.883109
 H    -2.790426     2.534034     1.438868
 B    -2.163006     0.052733     1.484678
 H    -1.332956     0.057263     2.324182
 B    -3.041073    -1.378337     0.976210
 H    -2.886139    -2.391126     1.572771
 B    -3.097588    -1.413426    -0.818565
 H    -2.989109    -2.447865    -1.386641
 B    -4.014671     0.025856    -1.375735
 H    -4.653751    -0.000729    -2.376298
 B    -3.894191     0.102219     1.518555
 H    -4.458283     0.152721     2.562371
 B    -4.493812    -0.827770     0.115697
 H    -5.500938    -1.454444     0.172407
 B    -4.463388     0.968737     0.064785
 H    -5.446540     1.633954     0.097196
 N    -0.333718     1.193095    -0.150729
 N    -0.371119    -1.194600     0.026833
 C    -1.708227     0.823222    -0.044283
 C    -1.742207    -0.789556     0.022692
 C     0.443233    -0.029352    -0.415606
 H     1.389452     0.002010     0.129552
 H     0.667892    -0.116227    -1.490455
 C    -0.039930    -2.454667    -0.644226
 H    -0.132371    -2.362777    -1.740436
 H    -0.779454    -3.195533    -0.321586
 C     1.356363    -2.929601    -0.286845
 C     1.762002    -3.006138     1.053190
 H     1.075901    -2.687988     1.833456
 C     3.032909    -3.475899     1.381802
 H     3.335127    -3.530422     2.424346
 C     3.915430    -3.878942     0.375250
 H     4.905554    -4.245510     0.632241
 C     3.519927    -3.805176    -0.960466
 H     4.201022    -4.111940    -1.749677
 C     2.247887    -3.328956    -1.287939
 H     1.945526    -3.268479    -2.331070
 C     0.219384     2.115566     0.852360
 H     0.391045     1.615190     1.818124
 H    -0.538658     2.886193     1.023318
 C     1.505756     2.763356     0.375530
 C     2.612463     2.841416     1.227999
 H     2.556251     2.402042     2.221618
 C     3.785715     3.479074     0.816980
 H     4.636405     3.531122     1.491159
 C     3.865317     4.039641    -0.457903
 H     4.777755     4.532849    -0.781899
 C     2.766507     3.960134    -1.318604
 H     2.822657     4.393410    -2.313749
 C     1.594959     3.327546    -0.904843
 H     0.742399     3.259933    -1.574835
