   66
scf done: -1536.549761
 C     0.000011     4.275215     1.483552
 C     0.000133     4.717078     0.164771
 C     0.000270     4.064425    -2.290653
 H    -0.000041     5.005255     2.294423
 H     0.000160     5.784526    -0.058528
 H     0.000313     5.103181    -2.622411
 C     0.000013     1.947332     0.797893
 C    -0.000053     2.886532     1.813504
 C     0.000177     3.770197    -0.896551
 C     0.000301     3.029454    -3.219939
 C     0.000237     1.657783    -2.820085
 C     0.000149     1.368889    -1.475767
 C     0.000120     2.404484    -0.531961
 C    -0.000037     0.414971     0.862334
 C    -1.264756    -0.098756     1.569172
 C    -2.219687     0.795937     2.077905
 C    -3.452449     0.366642     2.575080
 C    -3.776908    -0.996250     2.547497
 C    -2.836722    -1.899418     2.056659
 C    -1.570151    -1.479686     1.599246
 C    -0.674810    -2.531603     1.146167
 C     0.674518    -2.531653     1.146211
 C     1.569883    -1.479807     1.599377
 C     1.264548    -0.098861     1.569335
 C     0.000061    -0.007154    -0.799317
 C    -1.351866    -0.637233    -1.165408
 C    -2.446364     0.223953    -0.946212
 C    -3.770705    -0.171101    -1.099778
 C    -4.050955    -1.476199    -1.526652
 C    -2.987103    -2.325809    -1.806841
 C    -1.631921    -1.935911    -1.640048
 C    -0.674421    -2.969531    -1.999463
 C     0.674479    -2.969509    -1.999552
 C     1.632003    -1.935929    -1.640069
 C     1.351984    -0.637306    -1.165256
 H    -0.000165     2.584807     2.859500
 H     0.000380     3.267389    -4.284829
 H     0.000260     0.864787    -3.566769
 H    -2.030776     1.862639     2.040788
 H    -4.167141     1.098680     2.953743
 H    -4.746991    -1.346275     2.901851
 H    -3.069514    -2.964355     2.030225
 H    -1.169249    -3.456447     0.844739
 H     1.168906    -3.456537     0.844802
 H    -2.256732     1.242509    -0.627672
 H    -4.575080     0.532738    -0.887109
 H    -5.079355    -1.815966    -1.653254
 H    -3.188695    -3.335162    -2.168227
 H    -1.144991    -3.895126    -2.342275
 H     1.145038    -3.895074    -2.342454
 H     2.256925     1.242312    -0.627208
 C     2.836397    -1.899605     2.056882
 C     3.776549    -0.996499     2.547907
 C     3.452105     0.366391     2.575611
 C     2.219415     0.795761     2.078305
 C     2.987179    -2.325853    -1.806897
 C     4.051056    -1.476334    -1.526546
 C     3.770844    -0.171295    -1.099452
 C     2.446522     0.223791    -0.945882
 H     3.069157    -2.964548     2.030404
 H     4.746589    -1.346580     2.902324
 H     4.166750     1.098375     2.954467
 H     2.030549     1.862473     2.041269
 H     3.188738    -3.335162    -2.168430
 H     5.079447    -1.816117    -1.653191
 H     4.575236     0.532483    -0.886659
