   68
scf done: -1612.567475
 C     1.560646     0.000443     1.091739
 C     2.440209     0.000825     2.177406
 C     3.871753     0.001082     1.990079
 C     4.415943     0.000887     0.703106
 C     3.494811     0.000480    -0.360305
 C     4.105421     0.000297    -1.629246
 C     3.251955    -0.000124    -2.735475
 C     1.818441    -0.000339    -2.551213
 C     1.274326    -0.000083    -1.275517
 C     2.141232     0.000267    -0.181013
 C     5.746804     0.000939     0.039846
 C     5.563044     0.000584    -1.333421
 C     0.028886     0.000113     0.958291
 C    -0.576022     1.263056     1.582552
 C     0.242560     2.211903     2.214911
 C    -0.247587     3.446228     2.647449
 C    -1.591830     3.776003     2.426927
 C    -2.421934     2.838831     1.815681
 C    -1.947258     1.570535     1.421192
 C    -2.928671     0.674199     0.832192
 C    -2.928317    -0.675545     0.832307
 C    -1.946421    -1.571307     1.421355
 C    -2.420414    -2.839832     1.815959
 C    -1.589800    -3.776519     2.427249
 C    -0.245732    -3.445994     2.647740
 C     0.243734    -2.211440     2.215115
 C    -0.575360    -1.263068     1.582681
 C    -0.178627    -0.000041    -0.781144
 C    -0.755552     1.352699    -1.212406
 C     0.068119     2.446047    -0.873348
 C    -0.305903     3.770524    -1.072244
 C    -1.543703     4.051548    -1.666079
 C    -2.347813     2.988665    -2.062165
 C    -1.980684     1.633402    -1.852834
 C    -2.954223     0.674318    -2.349916
 C    -2.954155    -0.675063    -2.349787
 C    -1.980468    -1.633905    -1.852560
 C    -2.347174    -2.989257    -2.061881
 C    -1.542695    -4.051903    -1.665830
 C    -0.304923    -3.770524    -1.072132
 C     0.068725    -2.445915    -0.873301
 C    -0.755376    -1.352862    -1.212189
 H     2.060459     0.000974     3.198330
 H     4.506573     0.001385     2.877245
 H     3.643345    -0.000276    -3.753805
 H     1.175462    -0.000646    -3.430923
 H     6.706640     0.001214     0.549018
 H     1.301971     2.013435     2.332758
 H     0.425639     4.157540     3.127868
 H    -1.984166     4.747677     2.728606
 H    -3.472130     3.075462     1.642349
 H    -3.805654     1.167929     0.410510
 H    -3.805038    -1.169816     0.410717
 H    -3.470484    -3.077047     1.642653
 H    -1.981604    -4.748374     2.729038
 H     0.427874    -4.156929     3.128182
 H     1.303038    -2.012360     2.332903
 H     1.035063     2.256235    -0.421715
 H     0.362281     4.574639    -0.764963
 H    -1.865142     5.080368    -1.831140
 H    -3.301067     3.191632    -2.552163
 H    -3.825502     1.144010    -2.814696
 H    -3.825364    -1.144944    -2.814508
 H    -3.300333    -3.192534    -2.551932
 H    -1.863878    -5.080812    -1.830835
 H     0.363544    -4.574429    -0.764920
 H     1.035706    -2.255768    -0.421852
 H     6.356967     0.000521    -2.075356
