   66
scf done: -2155.994446
Cl    -1.984542     3.169249    -0.740926
Cl    -1.984753    -3.169030     0.741107
 C    -0.737063    -0.692038     0.194008
 C     0.790696    -0.716997     0.427488
 C     0.790780     0.716904    -0.427336
 C    -0.736989     0.692166    -0.193769
 C    -1.908374     1.377011    -0.320806
 C    -3.164490     0.705607    -0.145923
 C    -4.410068     1.374382    -0.276298
 C    -5.607542     0.694742    -0.138231
 C    -5.607597    -0.694336     0.138032
 C    -4.410176    -1.374048     0.276209
 C    -3.164546    -0.705350     0.145936
 C    -1.908487    -1.376835     0.320932
 C     1.632878    -1.840159    -0.130097
 C     1.057619    -2.961203    -0.738854
 C     1.848857    -3.999023    -1.249839
 C     3.245053    -3.932787    -1.157348
 C     3.835241    -2.814534    -0.550115
 C     3.034842    -1.784951    -0.047367
 C     0.973624    -0.599343     2.030629
 C    -0.045305     0.379059     2.674609
 C     0.708358    -2.002698     2.635108
 C     2.380134    -0.175177     2.532311
 C     1.633149     1.839979     0.130151
 C     1.058066     2.961272     0.738618
 C     1.849470     3.999100     1.249325
 C     3.245661     3.932610     1.156870
 C     3.835671     2.814091     0.549963
 C     3.035103     1.784508     0.047474
 C     0.973610     0.599222    -2.030495
 C    -0.045749    -0.378787    -2.674391
 C     0.708885     2.002700    -2.634908
 C     2.379904     0.174501    -2.532304
 H    -4.411436     2.438743    -0.493415
 H    -6.550853     1.230428    -0.244285
 H    -6.550951    -1.229963     0.244002
 H    -4.411628    -2.438406     0.493343
 H    -0.020700    -3.045902    -0.811579
 H     1.370485    -4.860098    -1.718514
 H     3.864673    -4.738468    -1.552788
 H     4.921237    -2.739051    -0.479605
 H     3.517829    -0.919742     0.388475
 H    -1.084822     0.084336     2.486569
 H     0.112437     0.367305     3.764952
 H     0.104144     1.405424     2.327155
 H     1.397613    -2.751229     2.221532
 H     0.865850    -1.950832     3.724879
 H    -0.318743    -2.336636     2.459138
 H     2.706991     0.777759     2.111195
 H     2.317794    -0.055483     3.626336
 H     3.132038    -0.950862     2.343418
 H    -0.020236     3.046164     0.811303
 H     1.371239     4.860387     1.717752
 H     3.865399     4.738313     1.552080
 H     4.921656     2.738391     0.479503
 H     3.517949     0.919111    -0.388159
 H     0.103115    -1.405158    -2.326710
 H    -1.085136    -0.083480    -2.486496
 H     0.112096    -0.367354    -3.764718
 H    -0.317839     2.337408    -2.458229
 H     1.398952     2.750783    -2.221879
 H     0.865576     1.950650    -3.724790
 H     2.317547     0.055453    -3.626405
 H     3.132277     0.949612    -2.342959
 H     2.706169    -0.778848    -2.111676
