   66
scf done: -1138.324216
 N     1.359820    -0.278896     0.908274
 C     2.624586    -0.764287     0.402082
 C     0.829188     0.964563     0.544038
 C     2.676984    -1.584389    -0.735158
 C     3.935483    -1.999081    -1.205303
 H     3.982574    -2.628369    -2.095429
 C     3.800504    -0.423986     1.103335
 C     5.032487    -0.869003     0.615041
 H     5.944217    -0.606247     1.153736
 C     5.118732    -1.640706    -0.554840
 C     1.436835    -2.073031    -1.453784
 H     0.537059    -1.703755    -0.961435
 H     1.414773    -3.174829    -1.462542
 H     1.436865    -1.735634    -2.502621
 B     0.729010     1.347361    -1.162132
 H     1.218782     0.596623    -1.928661
 B     0.747759     2.321672     1.549686
 H     1.218535     2.194445     2.628779
 C     6.471122    -2.066512    -1.096645
 H     7.127018    -2.429194    -0.290561
 H     6.977106    -1.215048    -1.581669
 H     6.364556    -2.865789    -1.843462
 C     3.738452     0.397223     2.374418
 H     3.364667     1.409674     2.173126
 H     4.737843     0.481716     2.823599
 H     3.067019    -0.057804     3.119667
 B     1.712861     2.292937     0.042095
 H     2.888430     2.170113     0.007905
 B     0.782181     3.125313    -1.214173
 H     1.353413     3.697284    -2.083720
 B     0.740982     3.724490     0.474240
 H     1.279769     4.727077     0.812284
 H     1.076827    -0.613527     1.831565
 N    -1.359925    -0.278737    -0.908395
 C    -2.624658    -0.764175    -0.402156
 C    -0.829218     0.964668    -0.544056
 C    -2.676936    -1.584438     0.734974
 C    -3.935379    -1.999238     1.205167
 H    -3.982371    -2.628665     2.095201
 C    -3.800646    -0.423831    -1.103271
 C    -5.032575    -0.868957    -0.614933
 H    -5.944358    -0.606167    -1.153521
 C    -5.118696    -1.640812     0.554854
 C    -1.436707    -2.073157     1.453413
 H    -0.536982    -1.703994     0.960882
 H    -1.414752    -3.174954     1.462248
 H    -1.436514    -1.735681     2.502226
 B    -0.729016     1.347312     1.162135
 H    -1.218844     0.596552     1.928604
 B    -0.747700     2.321854    -1.549596
 H    -1.218486     2.194749    -2.628698
 C    -6.471021    -2.066705     1.096751
 H    -7.127230    -2.428682     0.290608
 H    -6.976674    -1.215460     1.582511
 H    -6.364419    -2.866516     1.842993
 C    -3.738743     0.397537    -2.374258
 H    -3.364955     1.409968    -2.172877
 H    -4.738185     0.482070    -2.823318
 H    -3.067389    -0.057387    -3.119642
 B    -1.712804     2.293062    -0.042007
 H    -2.888381     2.170309    -0.007826
 B    -0.782066     3.125266     1.214329
 H    -1.353257     3.697201     2.083927
 B    -0.740825     3.724583    -0.474032
 H    -1.279542     4.727236    -0.811991
 H    -1.077049    -0.613233    -1.831773
