   62
scf done: -1978.821638
 I     3.551094     1.535055    -0.340851
 I    -3.551573     1.534453     0.340479
 C     0.837130    -1.010715    -0.183358
 C    -0.836972    -1.010888     0.183649
 C    -0.696166     0.509248     0.115902
 C    -1.433138     1.658536     0.169345
 C    -0.723480     2.910606     0.074286
 C    -1.395349     4.160116     0.139207
 C    -0.705679     5.357761     0.068536
 C     0.704530     5.357892    -0.068869
 C     1.394417     4.160368    -0.139465
 C     0.722778     2.910743    -0.074457
 C     1.432677     1.658802    -0.169429
 C     0.695921     0.509387    -0.115853
 C     1.061665    -1.582607    -1.558673
 C     1.519413    -0.796178    -2.618246
 C     1.640499    -1.334443    -3.907281
 C     1.300515    -2.672454    -4.146151
 C     0.838331    -3.467536    -3.084848
 C     0.719075    -2.921801    -1.805904
 C     1.737321    -1.560399     0.902616
 C     1.757835    -0.923226     2.153909
 C     2.543246    -1.415589     3.196175
 C     3.333404    -2.559912     3.001688
 C     3.343415    -3.183025     1.746220
 C     2.551891    -2.680868     0.703857
 C    -1.736856    -1.561078    -0.902319
 C    -1.757536    -0.924058    -2.153690
 C    -2.542407    -1.417052    -3.196069
 C    -3.331864    -2.561859    -3.001621
 C    -3.341750    -3.184809    -1.746075
 C    -2.550765    -2.682030    -0.703605
 C    -1.061455    -1.582650     1.559029
 C    -0.718096    -2.921594     1.806552
 C    -0.837469    -3.467260     3.085516
 C    -1.300465    -2.672323     4.146571
 C    -1.641129    -1.334529     3.907429
 C    -1.519967    -0.796347     2.618366
 H    -2.478089     4.161175     0.249644
 H    -1.247976     6.301758     0.122021
 H     1.246648     6.301989    -0.122413
 H     2.477158     4.161610    -0.249900
 H     1.775167     0.247484    -2.450357
 H     1.999154    -0.706379    -4.724206
 H     1.388436    -3.092424    -5.148771
 H     0.558045    -4.506887    -3.260544
 H     0.325030    -3.535059    -1.000105
 H     1.152524    -0.035865     2.317261
 H     2.540803    -0.909426     4.162242
 H     3.946506    -2.950096     3.814871
 H     3.974050    -4.056608     1.573731
 H     2.583814    -3.161035    -0.271017
 H    -1.152755    -0.036332    -2.317017
 H    -2.540086    -0.911014    -4.162199
 H    -3.944549    -2.952518    -3.814891
 H    -3.971863    -4.058773    -1.573613
 H    -2.582584    -3.162137     0.271301
 H    -0.323350    -3.534685     1.000975
 H    -0.556625    -4.506425     3.261422
 H    -1.388483    -3.092221     5.149212
 H    -2.000396    -0.706572     4.724168
 H    -1.776294     0.247140     2.450283
