   58
scf done: -1976.432717
 I    -1.722504     3.558065    -0.196849
 I    -1.722057    -3.558260     0.196710
 C     0.765594     0.850653     0.070825
 C     0.765719    -0.850508    -0.070853
 C    -0.736054    -0.706881     0.044656
 C    -1.881374    -1.443006     0.092153
 C    -3.133408    -0.725524     0.053401
 C    -4.381642    -1.398849     0.109819
 C    -5.579371    -0.706283     0.056320
 C    -5.579460     0.705642    -0.056181
 C    -4.381816     1.398347    -0.109793
 C    -3.133499     0.725165    -0.053500
 C    -1.881554     1.442800    -0.092348
 C    -0.736147     0.706803    -0.044872
 C     1.262673     1.266917     1.431351
 C     0.645359     1.145931     2.665294
 C     1.355882     1.547427     3.812479
 C     2.662272     2.053689     3.697507
 C     3.264302     2.211059     2.434592
 C     2.547288     1.831468     1.302135
 C     2.833796     1.990115    -0.133428
 C     3.927911     2.556602    -0.783643
 C     3.882025     2.698197    -2.181864
 C     2.742332     2.303392    -2.903467
 C     1.645041     1.721291    -2.243061
 C     1.709959     1.542935    -0.868479
 C     1.710073    -1.542697     0.868539
 C     1.645057    -1.721025     2.243113
 C     2.742327    -2.303065     2.903621
 C     3.882094    -2.697811     2.182118
 C     3.928096    -2.556221     0.783895
 C     2.834001    -1.989825     0.133575
 C     2.547590    -1.831202    -1.302007
 C     3.264737    -2.210777    -2.434415
 C     2.662822    -2.053442    -3.697362
 C     1.356387    -1.547235    -3.812449
 C     0.645752    -1.145792    -2.665346
 C     1.262977    -1.266742    -1.431335
 H    -4.382122    -2.484096     0.193891
 H    -6.523684    -1.248808     0.100698
 H    -6.523841     1.248057    -0.100462
 H    -4.382426     2.483593    -0.193878
 H    -0.371868     0.762164     2.741610
 H     0.890253     1.468589     4.795546
 H     3.205651     2.352962     4.594591
 H     4.261460     2.643199     2.350023
 H     4.797906     2.897106    -0.221905
 H     4.729550     3.138569    -2.708742
 H     2.707465     2.451122    -3.983103
 H     0.762131     1.427846    -2.802516
 H     0.762089    -1.427611     2.802495
 H     2.707371    -2.450794     3.983255
 H     4.729605    -3.138125     2.709064
 H     4.798169    -2.896671     0.222245
 H     4.261911    -2.642855    -2.349719
 H     3.206263    -2.352674    -4.594422
 H     0.890871    -1.468430    -4.795572
 H    -0.371492    -0.762088    -2.741717
