   54
FINAL HEAT OF FORMATION = -1304.736077
 C     9.143606     5.484900    10.795142
 C     7.718142     6.203420    11.439494
 C     7.547218     4.308099     9.213959
 C     6.421645     4.865466     9.711526
 C     9.120635     3.988754    10.962275
 C     9.807303     3.257768    11.926573
 H    10.460303     3.766208    12.634889
 C     9.645592     1.860702    11.980430
 H    10.186961     1.281428    12.729253
 C     8.790391     1.206006    11.082354
 H     8.667278     0.123561    11.136145
 C     8.083269     1.944516    10.118356
 H     7.396235     1.454988     9.427965
 C     8.258645     3.322151    10.067756
 C     9.343414     5.849021     9.346136
 C    10.240362     6.791927     8.856175
 H    10.900479     7.323639     9.540721
 C    10.281240     7.053394     7.473885
 H    10.986965     7.787005     7.082517
 C     9.418551     6.382395     6.595196
 H     9.454026     6.598210     5.526636
 C     8.502029     5.438338     7.089831
 H     7.810282     4.923383     6.423128
 C     8.477635     5.180743     8.454933
 C     6.778098     5.175429    12.032458
 C     6.654124     4.872871    13.384246
 H     7.257897     5.404068    14.119128
 C     5.747992     3.875568    13.789573
 H     5.642889     3.639425    14.849131
 C     4.980272     3.182700    12.842897
 H     4.278753     2.413898    13.168982
 C     5.120893     3.468838    11.473223
 H     4.549336     2.921255    10.723843
 C     6.018322     4.455793    11.084741
 C     6.989235     7.049300    10.415770
 C     7.058218     8.434283    10.319797
 H     7.664381     8.998953    11.027607
 C     6.344320     9.092702     9.301721
 H     6.390915    10.179722     9.225783
 C     5.575642     8.362479     8.384407
 H     5.025300     8.884742     7.600952
 C     5.520999     6.959164     8.464962
 H     4.946860     6.377352     7.743963
 C     6.229310     6.319966     9.474653
 C     9.848537     6.298534    11.854978
 C    11.110293     6.538310    12.368807
 H    12.008440     6.075048    11.961067
 C    11.166564     7.420352    13.469379
 H    12.131346     7.649040    13.924026
 C    10.001297     8.011417    13.999972
 H    10.094295     8.684331    14.853407
 C     8.724397     7.748874    13.456730
 H     7.826213     8.202809    13.874290
 C     8.693859     6.880656    12.377931
