   74
scf done: -1242.109539
 C    -0.615132    -0.029555    -0.122432
 C    -0.949834    -1.539158    -0.419624
 C     1.022083     0.187403     0.174908
 C    -2.382950    -1.739535    -0.971296
 C     1.183575     1.333335     1.216784
 C    -1.683905     0.380036     0.999030
 C     1.811257     0.587986    -1.131343
 C    -1.731550     1.889191     1.363600
 C    -2.438962     0.587345    -1.870818
 C     2.724765    -1.748297    -1.544288
 C    -1.006979     0.868297    -1.357140
 C    -3.146233     0.126711     0.450474
 C    -1.541637    -0.506233     2.256484
 C     3.260535     1.051818    -0.803198
 C     3.340000    -0.571542     1.076789
 C    -0.930665     2.381958    -1.032269
 C    -3.402362    -1.344841     0.114944
 C     1.877813    -1.024387     0.739415
 C    -3.454035     0.987498    -0.784877
 C     4.065480    -0.121702    -0.211727
 C     2.627221     1.763247     1.504351
 C     1.911596    -0.579673    -2.142812
 C     4.154388    -1.267400    -1.232194
 C     2.069652    -2.224006    -0.230448
 C    -1.822512    -1.991681     1.925363
 C     3.381391     0.568038     2.101876
 C    -1.929487     2.752024     0.090879
 C     3.271069     2.228086     0.185747
 C    -2.597148    -0.895215    -2.234652
 C    -3.348874     2.483918    -0.449811
 C    -0.849791    -2.457626     0.828604
 C    -3.254861    -2.179460     1.395352
 H    -0.346524     0.648507    -2.202396
 H     2.756421    -2.583805    -2.263362
 H     2.607063     2.598047     2.225639
 H     2.900516     0.255553     3.044562
 H    -1.858307    -1.176474    -3.004947
 H     0.152449    -2.506808     1.245575
 H    -4.475980     0.756978    -1.133850
 H    -2.601922     1.207865    -2.769798
 H     0.918283    -0.928412    -2.451611
 H    -1.204991     2.943896    -1.943001
 H     4.655938    -0.916739    -2.150577
 H     4.753304    -2.098912    -0.823364
 H    -3.829528     0.419275     1.267299
 H    -2.608574     2.037323     2.018932
 H    -4.105788     2.756012     0.305150
 H     4.306783     2.569723     0.353891
 H     0.084711     2.700454    -0.781170
 H     1.337505     1.442827    -1.622948
 H     2.705117     3.081400    -0.225719
 H    -3.600204    -1.080774    -2.656042
 H    -0.276872    -1.901339    -1.201209
 H     2.413422    -0.215314    -3.056703
 H     1.445320    -1.359853     1.691271
 H     3.727759     1.366074    -1.753464
 H    -3.441188    -3.247280     1.189809
 H    -3.998189    -1.849011     2.141027
 H    -0.533660    -0.414212     2.685694
 H    -2.502320    -2.809380    -1.217136
 H     4.427705     0.831296     2.333662
 H     0.730205     1.023839     2.166307
 H    -1.672936    -2.601254     2.832504
 H    -3.541427     3.092553    -1.349797
 H     0.654482     2.220012     0.877144
 H     2.734906    -2.956814     0.259382
 H     1.147160    -2.759263    -0.448334
 H    -0.876232     2.215746     1.954912
 H    -1.818248     3.818836     0.347858
 H    -4.426161    -1.451799    -0.284799
 H     3.859138    -1.452930     1.491636
 H    -1.110465    -3.485480     0.519858
 H    -2.252743    -0.155608     3.025910
 H     5.080628     0.225755     0.048174
