   54
FINAL HEAT OF FORMATION =  -981.389150
 B     1.162716     0.222642     8.178560
 B     0.692598     1.442106     9.444572
 B    -1.081076     1.267707     9.618660
 B    -1.546447    -0.035785     8.441097
 B     1.434963    -0.106659     9.890070
 B     0.008069     0.506122    10.795127
 B    -1.427834    -0.375324    10.180325
 C    -0.305999     1.146467     8.134334
 N    -0.557976     1.956361     7.041216
 C     0.442094     2.750925     6.315550
 H     1.430101     2.314298     6.517246
 H     0.462421     3.791102     6.682787
 C     0.144202     2.723424     4.826656
 C     0.313953     3.871979     4.042008
 H     0.634880     4.804864     4.508488
 C     0.063170     3.829709     2.661738
 H     0.191668     4.728558     2.057608
 C    -0.359766     2.634180     2.061237
 H    -0.559600     2.601335     0.989727
 C    -0.532041     1.484516     2.847356
 H    -0.855187     0.549204     2.390697
 C    -0.283117     1.531620     4.223300
 H    -0.417559     0.652170     4.847553
 H     1.988197     0.428853     7.358290
 H    -2.392596    -0.573499    10.841749
 H     1.251253     2.486839     9.463159
 H    -2.519436     0.033556     7.766668
 H     2.528580    -0.124471    10.349949
 H    -1.806079     2.195587     9.747395
 H     0.079054     0.926622    11.903003
 H    -1.534118     2.086646     6.770180
 B     0.894455    -1.446588     8.855902
 B    -0.874873    -1.609978     9.041167
 B     0.132842    -1.216017    10.446583
 C    -0.170492    -0.801251     7.740271
 N    -0.293387    -1.141479     6.401560
 C     0.852379    -1.502091     5.544090
 H     1.420576    -0.607070     5.248379
 H     1.532100    -2.154731     6.115382
 C     0.330344    -2.219622     4.318337
 C    -0.515780    -3.330483     4.467236
 H    -0.776281    -3.678518     5.467688
 C    -1.013291    -3.997513     3.341070
 H    -1.666923    -4.861720     3.465256
 C    -0.661332    -3.561793     2.053588
 H    -1.046572    -4.081247     1.175731
 C     0.193395    -2.460918     1.901643
 H     0.474805    -2.121571     0.904161
 C     0.685318    -1.792681     3.032327
 H     1.339380    -0.929265     2.913090
 H     1.599703    -2.324615     8.488084
 H    -1.458255    -2.606642     8.777171
 H     0.298723    -2.019211    11.304690
 H    -1.229524    -1.286651     6.023389
