   72
scf done: -1216.771341
 N     1.637446     0.602127     0.311225
 N    -1.568246     0.559986     0.272012
 C     4.177057    -3.100688     0.403968
 H     4.021553    -4.124602     0.746554
 C     3.073232    -2.344049    -0.016569
 C    -3.281499    -0.987227    -0.515972
 C     3.268370    -1.022117    -0.457539
 C     1.015527     1.834927     0.235507
 C     2.086134    -0.172854    -0.868119
 H     2.367778     0.532025    -1.660956
 H     1.260375    -0.787907    -1.253215
 C     5.470340    -2.563277     0.404636
 B    -1.455616     3.120293    -0.678681
 C    -0.977898     1.809965     0.240808
 B     0.043020     2.182672    -1.134052
 C    -5.593146    -1.167198     0.200303
 H    -6.546708    -0.689651     0.431368
 C     4.558600    -0.454525    -0.435756
 C    -3.142185    -2.381804    -0.396803
 C     5.643087    -1.236397    -0.014485
 H     6.641645    -0.797224    -0.003593
 C    -2.109350    -0.122493    -0.926051
 H    -1.323000    -0.712045    -1.417253
 H    -2.429434     0.649692    -1.638146
 B     1.490310     3.178160    -0.665100
 B    -0.011743     2.224791     1.598620
 C    -4.515975    -0.372934    -0.210686
 B     0.010046     3.950663    -1.237413
 C    -4.242153    -3.150961     0.018074
 H    -4.130415    -4.231944     0.109181
 C    -5.472355    -2.559415     0.323614
 B    -1.478585     3.172796     1.108903
 B     1.464646     3.182406     1.123724
 C     6.662691    -3.403870     0.824209
 H     7.148010    -3.851672    -0.059636
 H     6.355323    -4.223218     1.489897
 H     7.415409    -2.794404     1.345853
 C     1.685255    -2.956252     0.017369
 H     1.702943    -3.932624     0.521087
 H     1.291104    -3.110838    -0.999543
 H     0.982673    -2.305000     0.556081
 B    -0.891267     4.566100     0.190867
 C    -1.829156    -3.077074    -0.710792
 H    -1.870597    -4.131585    -0.404291
 H    -0.989859    -2.604853    -0.185945
 H    -1.606743    -3.050666    -1.790306
 B     0.869471     4.586902     0.209487
 C    -4.695804     1.127789    -0.339158
 H    -5.699858     1.426219    -0.006522
 H    -4.575713     1.455007    -1.384697
 H    -3.954785     1.673962     0.259435
 B    -0.017694     3.999026     1.654602
 C    -6.657192    -3.397074     0.770468
 H    -7.037277    -3.054109     1.745883
 H    -6.378113    -4.455907     0.863301
 H    -7.484528    -3.323208     0.046094
 C     4.786097     0.985687    -0.855724
 H     5.832750     1.275395    -0.688130
 H     4.142053     1.671682    -0.287774
 H     4.561988     1.133217    -1.924884
 H     0.045325     1.414117    -2.032072
 H    -2.474061     3.043077     1.738346
 H     0.000449     1.457522     2.503203
 H     1.483928     5.602602     0.204081
 H    -2.425361     2.993709    -1.345240
 H     2.447525     3.072604     1.777083
 H    -1.530768     5.565824     0.159227
 H     0.000769     4.513071    -2.282982
 H     2.480287     3.066358    -1.304723
 H    -0.023957     4.589758     2.684134
 H     1.926977     0.264964     1.229675
 H    -1.683092     0.097865     1.174138
