   50
scf done:  -978.931976
 B     5.748952     3.650095     3.570079
 B     4.195382     4.539943     3.613249
 B     3.582739     4.540138     5.294945
 B     5.742734     5.410522     3.586901
 B     4.409138     5.967479     4.643421
 C     4.439382     3.214600     4.654595
 C     2.737240     1.683874     4.034848
 H     2.031315     2.486269     3.777973
 N     3.933072     1.910318     4.470265
 C     2.290759     0.296996     3.872264
 C     0.996437     0.026694     3.400940
 H     0.325871     0.852032     3.156756
 C     0.567297    -1.298778     3.244689
 H    -0.438199    -1.507078     2.878639
 C     1.435309    -2.354409     3.560700
 H     1.104539    -3.386470     3.440168
 C     2.733585    -2.083046     4.033469
 H     3.405068    -2.906420     4.277966
 C     3.160144    -0.764761     4.188862
 H     4.157033    -0.519959     4.551947
 H     2.430980     4.371562     5.512991
 H     6.045168     2.850267     2.756527
 H     3.453665     4.371491     2.705489
 H     6.095686     5.995929     2.617573
 H     3.811663     6.969215     4.425800
 B     4.744588     3.650103     6.327123
 B     6.298140     4.539976     6.283946
 B     6.910788     4.540160     4.602241
 B     4.750773     5.410530     6.310277
 B     6.084365     5.967497     5.253753
 C     6.054152     3.214616     5.242607
 C     7.756277     1.683904     5.862355
 H     8.462205     2.486300     6.119220
 N     6.560449     1.910343     5.426939
 C     8.202756     0.297022     6.024933
 C     9.497082     0.026709     6.496243
 H    10.167661     0.852037     6.740423
 C     9.926211    -1.298766     6.652483
 H    10.931710    -1.507076     7.018521
 C     9.058183    -2.354386     6.336476
 H     9.388946    -3.386450     6.457000
 C     7.759904    -2.083009     5.863723
 H     7.088408    -2.906374     5.619229
 C     7.333355    -0.764722     5.708339
 H     6.336464    -0.519906     5.345268
 H     8.062548     4.371589     4.384199
 H     4.448379     2.850280     7.140682
 H     7.039861     4.371536     7.191706
 H     4.397810     5.995944     7.279599
 H     6.681825     6.969244     5.471362
