   54
scf done:     0.698040
 C    -0.012172     0.657190     0.829518
 C     0.002688     0.639270    -0.882933
 C     0.014208    -1.896796     0.720861
 C     0.024844    -1.908424    -0.626317
 C    -1.239549    -0.012172     1.420338
 C    -2.323548     0.649793     1.965106
 H    -2.346809     1.599346     1.978801
 C    -3.381057    -0.082883     2.493643
 H    -4.122439     0.371062     2.876358
 C    -3.365362    -1.462876     2.466588
 H    -4.093163    -1.950528     2.832706
 C    -2.289775    -2.140399     1.907167
 H    -2.283152    -3.090366     1.877887
 C    -1.231259    -1.420516     1.394175
 C     1.219858     0.013987     1.440751
 C     2.291858     0.701047     1.976699
 H     2.294308     1.651442     1.988060
 C     3.367686    -0.009662     2.499595
 H     4.106317     0.460193     2.868389
 C     3.373938    -1.389248     2.489152
 H     4.110190    -1.861746     2.858219
 C     2.306858    -2.090809     1.941020
 H     2.312541    -3.041111     1.927287
 C     1.238033    -1.391489     1.416595
 C    -1.208100    -0.056620    -1.474700
 C    -2.270568     0.568605    -2.098488
 H    -2.274890     1.512631    -2.206754
 C    -3.335506    -0.196087    -2.568581
 H    -4.065902     0.230831    -3.000867
 C    -3.340074    -1.563234    -2.413519
 H    -4.082424    -2.070233    -2.722653
 C    -2.267528    -2.208472    -1.808482
 H    -2.266273    -3.153767    -1.715563
 C    -1.204185    -1.460010    -1.344713
 C     1.236704    -0.034552    -1.454814
 C     2.298773     0.610166    -2.060798
 H     2.295277     1.554553    -2.157041
 C     3.372840    -0.139212    -2.528723
 H     4.101329     0.300189    -2.951163
 C     3.397491    -1.509828    -2.388455
 H     4.143042    -2.006103    -2.706713
 C     2.333607    -2.168452    -1.781668
 H     2.348344    -3.112573    -1.680566
 C     1.257510    -1.436178    -1.328296
 C    -0.030474     2.158558     0.655989
 C    -0.059202     3.327094     1.391956
 H    -0.068780     3.324039     2.341640
 C    -0.073143     4.506417     0.659682
 H    -0.095987     5.337068     1.119604
 C    -0.054671     4.499116    -0.723678
 H    -0.062710     5.327063    -1.189662
 C    -0.025441     3.316809    -1.451876
 H    -0.013492     3.313455    -2.401758
 C    -0.014502     2.147293    -0.722161
