   66
scf done: -1538.023286
 C    -0.001841     4.227140     1.570748
 C    -0.001821     4.702973     0.273836
 C    -0.001331     4.116406    -2.191590
 H    -0.002268     4.933808     2.398798
 H    -0.002174     5.774618     0.080556
 H    -0.001640     5.161107    -2.498473
 C    -0.000838     1.917828     0.833989
 C    -0.001353     2.840419     1.865615
 C    -0.001326     3.791866    -0.810884
 C    -0.000918     3.110564    -3.139147
 C    -0.000472     1.738602    -2.782516
 C    -0.000397     1.397429    -1.448983
 C    -0.000848     2.412345    -0.481638
 C    -0.000181     0.383044     0.870631
 C    -1.263191    -0.136021     1.596735
 C    -2.219855     0.751885     2.115034
 C    -3.407102     0.324624     2.701629
 C    -3.701014    -1.034217     2.767743
 C    -2.779683    -1.934233     2.257497
 C    -1.554899    -1.519551     1.701579
 C    -0.671212    -2.587089     1.267775
 C     0.674100    -2.586350     1.267826
 C     1.556716    -1.517902     1.701501
 C     1.263519    -0.134657     1.596764
 C     0.000025     0.001363    -0.815089
 C    -1.350347    -0.620892    -1.237976
 C    -2.455799     0.238883    -1.087541
 C    -3.764070    -0.127159    -1.373019
 C    -4.027337    -1.405908    -1.855992
 C    -2.962171    -2.269631    -2.033332
 C    -1.623832    -1.916351    -1.741407
 C    -0.671357    -2.974930    -2.020209
 C     0.672284    -2.974620    -2.020665
 C     1.624389    -1.915666    -1.742068
 C     1.350491    -0.620421    -1.238289
 H    -0.001382     2.518847     2.905524
 H    -0.000975     3.375159    -4.195121
 H    -0.000165     0.974072    -3.556680
 H    -2.061016     1.820086     2.027888
 H    -4.111562     1.063166     3.079720
 H    -4.633829    -1.386001     3.203713
 H    -2.986313    -3.002827     2.298187
 H    -1.167859    -3.521418     1.005951
 H     1.171772    -3.520156     1.006007
 H    -2.288712     1.244987    -0.717060
 H    -4.568373     0.587953    -1.214270
 H    -5.041378    -1.722107    -2.091749
 H    -3.146226    -3.270727    -2.420879
 H    -1.139958    -3.916304    -2.309679
 H     1.141133    -3.915778    -2.310459
 H     2.288412     1.245501    -0.716644
 C     2.782100    -1.931307     2.257034
 C     3.702606    -1.030331     2.767095
 C     3.407137     0.328177     2.701275
 C     2.219264     0.754216     2.115040
 C     2.962820    -2.268426    -2.034173
 C     4.027739    -1.404469    -1.856588
 C     3.764135    -0.125972    -1.373131
 C     2.455760     0.239592    -1.087526
 H     2.989882    -2.999686     2.297601
 H     4.635971    -1.381115     3.202692
 H     4.110860     1.067466     3.079278
 H     2.059200     1.822259     2.028186
 H     3.147152    -3.269373    -2.422009
 H     5.041850    -1.720322    -2.092507
 H     4.568254     0.589266    -1.214058
