   70
scf done: -1615.347105
 H    -6.092911    -0.877882    -1.695513
 C    -4.338641     0.000746     0.852581
 C    -3.481214     0.000651    -0.253578
 C    -4.108854     0.000570    -1.506888
 C    -3.291656     0.000235    -2.624466
 C    -5.758585     0.000608     0.315013
 C    -5.606190     0.000906    -1.251854
 H    -3.711292     0.000093    -3.629618
 H    -6.320136    -0.878652     0.657893
 H    -6.320613     0.879419     0.658236
 H    -6.092244     0.880326    -1.695007
 H    -0.414335    -4.570900    -1.063724
 C    -1.476950     0.000357     1.132015
 C    -2.322059     0.000543     2.238836
 C    -3.747233     0.000696     2.104513
 C    -1.866836     0.000031    -2.486926
 C    -1.269223     0.000158    -1.238303
 C    -2.100084     0.000428    -0.118829
 C     0.052107     0.000123     0.961465
 C     0.670550     1.260507     1.598644
 C    -0.134221     2.209198     2.249735
 C     0.370652     3.398173     2.766694
 C     1.722127     3.700253     2.624056
 C     2.540582     2.783805     1.983801
 C     2.053463     1.556505     1.496589
 C     3.046921     0.672695     0.912975
 C     3.046771    -0.673112     0.913095
 C     2.053123    -1.556574     1.496928
 C     2.539958    -2.783876     1.984399
 C     1.721271    -3.700046     2.624761
 C     0.369844    -3.397681     2.767241
 C    -0.134750    -2.208688     2.250046
 C     0.670267    -1.260254     1.598883
 C     0.203703    -0.000077    -0.804927
 C     0.766541     1.349831    -1.293445
 C    -0.058321     2.456005    -1.010646
 C     0.269403     3.766086    -1.332189
 C     0.267174    -3.766297    -1.331519
 C    -0.059780    -2.455960    -1.010251
 C     0.765828    -1.350370    -1.293118
 H    -1.908485     0.000569     3.246532
 H    -4.346760     0.000762     3.013897
 H    -1.201664     2.038884     2.327022
 H    -0.304684     4.097518     3.256175
 H     2.130494     4.635347     3.002048
 H     3.602073     2.996338     1.863983
 H     3.933896     1.169224     0.519310
 H     3.933638    -1.169914     0.519522
 H     3.601416    -2.996643     1.864702
 H     2.129420    -4.635157     3.002946
 H    -0.305671    -4.096841     3.256742
 H    -1.202168    -2.038161     2.327203
 H    -1.001456     2.286491    -0.501694
 H    -0.411565     4.571153    -1.064410
 H    -1.002873    -2.285736    -0.501455
 H     1.748062    -5.047364    -2.257703
 C     1.467166     4.030516    -1.990462
 C     2.292126     2.964723    -2.300323
 C     1.978588     1.624817    -1.973254
 C     2.982379     0.670970    -2.406946
 C     2.982064    -0.673000    -2.406710
 C     1.977741    -1.626205    -1.972813
 C     2.290516    -2.966361    -2.299579
 C     1.464864    -4.031589    -1.989588
 H    -1.256835    -0.000259    -3.388651
 H     1.750993     5.046059    -2.258796
 H     3.228317     3.149980    -2.825312
 H     3.871256     1.138759    -2.832123
 H     3.870704    -1.141383    -2.831726
 H     3.226649    -3.152304    -2.824430
