  212
scf done: -3348.887167
 C     0.838862    -0.004750     0.012277
 C    -0.838862     0.004750    -0.012277
 C     1.475890     0.322079    -1.387691
 C    -1.475890    -0.322079     1.387691
 C    -1.440995     1.394288    -0.433436
 C     1.440995    -1.394288     0.433436
 C     1.429149     1.052868     1.012558
 C    -1.429149    -1.052868    -1.012558
 C     1.045756     1.103532     2.364654
 C    -1.045756    -1.103532    -2.364654
 C    -1.085259    -1.438376     2.157034
 C     1.085259     1.438376    -2.157034
 C     1.062748    -2.599023    -0.184468
 C    -1.062748     2.599023     0.184468
 C     2.484565     1.891416     0.628639
 C    -2.484565    -1.891416    -0.628639
 C    -2.585463     0.396348     1.843760
 C     2.585463    -0.396348    -1.843760
 C     2.527215    -1.457759     1.318349
 C    -2.527215     1.457759    -1.318349
 C     1.627439     1.987478     3.281687
 C    -1.627439    -1.987478    -3.281687
 C    -1.738462    -1.798723     3.337784
 C     1.738462     1.798723    -3.337784
 C     1.701798    -3.816833     0.081629
 C    -1.701798     3.816833    -0.081629
 C     3.123720     2.765605     1.520239
 C    -3.123720    -2.765605    -1.520239
 C    -3.295201     0.049292     3.006460
 C     3.295201    -0.049292    -3.006460
 C     3.216416    -2.648318     1.591664
 C    -3.216416     2.648318    -1.591664
 C     2.663901     2.818584     2.837211
 C    -2.663901    -2.818584    -2.837211
 C    -2.851693    -1.044525     3.742683
 C     2.851693     1.044525    -3.742683
 C     2.782445    -3.820817     0.971206
 C    -2.782445     3.820817    -0.971206
 H     0.279339     0.427613     2.719243
 H    -0.279339    -0.427613    -2.719243
 H    -0.253273    -2.040561     1.821381
 H     0.253273     2.040561    -1.821381
 H     0.255977    -2.590930    -0.905314
 H    -0.255977     2.590930     0.905314
 H     2.847613     1.851261    -0.391300
 H    -2.847613    -1.851261     0.391300
 H    -2.940730     1.243850     1.270372
 H     2.940730    -1.243850    -1.270372
 H     2.876835    -0.547162     1.790729
 H    -2.876835     0.547162    -1.790729
 C     1.179095     1.971084     4.752209
 C    -1.179095    -1.971084    -4.752209
 C    -1.307337    -3.002274     4.188375
 C     1.307337     3.002274    -4.188375
 C     1.213650    -5.100523    -0.607628
 C    -1.213650     5.100523     0.607628
 C     4.337498     3.574614     1.039827
 C    -4.337498    -3.574614    -1.039827
 C    -4.536652     0.861587     3.397557
 C     4.536652    -0.861587    -3.397557
 C     4.433266    -2.617483     2.527209
 C    -4.433266     2.617483    -2.527209
 H     3.133035     3.501571     3.536565
 H    -3.133035    -3.501571    -3.536565
 H    -3.379566    -1.331272     4.647982
 H     3.379566     1.331272    -4.647982
 H     3.298494    -4.752175     1.175306
 H    -3.298494     4.752175    -1.175306
 C     5.147572    -0.392313    -4.723190
 C    -5.147572     0.392313     4.723190
 C    -5.045199     4.007546    -2.738046
 C     5.045199    -4.007546     2.738046
 C     4.859545     4.538209     2.112341
 C    -4.859545    -4.538209    -2.112341
 C     5.602529    -0.709473    -2.296562
 C    -5.602529     0.709473     2.296562
 C    -5.515804     1.705916    -1.919911
 C     5.515804    -1.705916     1.919911
 C     5.469738     2.592220     0.683636
 C    -5.469738    -2.592220    -0.683636
 C     4.168957    -2.348788    -3.541837
 C    -4.168957     2.348788     3.541837
 C    -4.022507     2.063996    -3.902039
 C     4.022507    -2.063996     3.902039
 C     3.981915     4.401337    -0.207751
 C    -3.981915    -4.401337     0.207751
 C     1.071581     2.556582    -5.643457
 C    -1.071581    -2.556582     5.643457
 C    -2.068412     6.321541     0.247122
 C     2.068412    -6.321541    -0.247122
 C     1.749440     3.152288     5.548584
 C    -1.749440    -3.152288    -5.548584
 C     0.015682     3.646875    -3.676679
 C    -0.015682    -3.646875     3.676679
 C     0.236713     5.386334     0.181825
 C    -0.236713    -5.386334    -0.181825
 C    -0.353916     2.028293     4.861073
 C     0.353916    -2.028293    -4.861073
 C     2.421493     4.065050    -4.166468
 C    -2.421493    -4.065050     4.166468
 C    -1.254982     4.925015     2.135197
 C     1.254982    -4.925015    -2.135197
 C     1.676175     0.667728     5.402568
 C    -1.676175    -0.667728    -5.402568
 H     0.762878     3.415695    -6.254470
 H    -0.762878    -3.415695     6.254470
 H    -1.679783     7.206299     0.767589
 H     1.679783    -7.206299    -0.767589
 H     1.359580     3.124613     6.574234
 H    -1.359580    -3.124613    -6.574234
 H     1.975407     2.134721    -6.099191
 H    -1.975407    -2.134721     6.099191
 H    -3.115663     6.192359     0.550338
 H     3.115663    -6.192359    -0.550338
 H     2.844288     3.117203     5.616190
 H    -2.844288    -3.117203    -5.616190
 H     0.281602     1.797570    -5.701330
 H    -0.281602    -1.797570     5.701330
 H    -2.044793     6.535877    -0.829214
 H     2.044793    -6.535877     0.829214
 H     1.461767     4.115521     5.107145
 H    -1.461767    -4.115521    -5.107145
 H     2.141995     4.923644    -4.792587
 H    -2.141995    -4.923644     4.792587
 H    -0.907648     5.842457     2.630302
 H     0.907648    -5.842457    -2.630302
 H     1.346720     0.610162     6.449518
 H    -1.346720    -0.610162    -6.449518
 H     2.594706     4.430849    -3.146451
 H    -2.594706    -4.430849     3.146451
 H    -0.608134     4.103824     2.463679
 H     0.608134    -4.103824    -2.463679
 H     1.288586    -0.212109     4.874570
 H    -1.288586     0.212109    -4.874570
 H     3.370444     3.666973    -4.547034
 H    -3.370444    -3.666973     4.547034
 H    -2.274899     4.716249     2.482431
 H     2.274899    -4.716249    -2.482431
 H     2.772395     0.614091     5.388002
 H    -2.772395    -0.614091    -5.388002
 H    -0.264677     4.481340    -4.333029
 H     0.264677    -4.481340     4.333029
 H     0.614225     6.282532     0.694402
 H    -0.614225    -6.282532    -0.694402
 H    -0.652190     1.994733     5.918136
 H     0.652190    -1.994733    -5.918136
 H    -0.818924     2.934899    -3.662003
 H     0.818924    -2.934899     3.662003
 H     0.302623     5.563215    -0.899636
 H    -0.302623    -5.563215     0.899636
 H    -0.745873     2.957565     4.429687
 H     0.745873    -2.957565    -4.429687
 H     0.129186     4.047120    -2.662447
 H    -0.129186    -4.047120     2.662447
 H     0.899292     4.549613     0.431064
 H    -0.899292    -4.549613    -0.431064
 H    -0.842993     1.189433     4.353891
 H     0.842993    -1.189433    -4.353891
 H     6.021721    -1.010602    -4.964360
 H    -6.021721     1.010602     4.964360
 H    -5.903710     3.931179    -3.417620
 H     5.903710    -3.931179     3.417620
 H     5.711907     5.103772     1.714498
 H    -5.711907    -5.103772    -1.714498
 H     4.436062    -0.483952    -5.554244
 H    -4.436062     0.483952     5.554244
 H    -4.327081     4.705360    -3.188067
 H     4.327081    -4.705360     3.188067
 H     4.092605     5.262399     2.416767
 H    -4.092605    -5.262399    -2.416767
 H     5.486401     0.650581    -4.672213
 H    -5.486401    -0.650581     4.672213
 H    -5.406868     4.443638    -1.797835
 H     5.406868    -4.443638     1.797835
 H     5.207163     4.007283     3.007943
 H    -5.207163    -4.007283    -3.007943
 H     6.498935    -1.292906    -2.548713
 H    -6.498935     1.292906     2.548713
 H    -6.391435     1.659284    -2.582156
 H     6.391435    -1.659284     2.582156
 H     6.356811     3.140096     0.336493
 H    -6.356811    -3.140096    -0.336493
 H     5.901262     0.340909    -2.182906
 H    -5.901262    -0.340909     2.182906
 H    -5.847390     2.087671    -0.945477
 H     5.847390    -2.087671     0.945477
 H     5.759184     1.994551     1.557943
 H    -5.759184    -1.994551    -1.557943
 H     5.233440    -1.060945    -1.325482
 H    -5.233440     1.060945     1.325482
 H    -5.149964     0.682383    -1.773184
 H     5.149964    -0.682383     1.773184
 H     5.167173     1.899971    -0.111653
 H    -5.167173    -1.899971     0.111653
 H     5.058658    -2.933769    -3.812780
 H    -5.058658     2.933769     3.812780
 H    -4.892355     2.025282    -4.572293
 H     4.892355    -2.025282     4.572293
 H     4.869189     4.939723    -0.568077
 H    -4.869189    -4.939723     0.568077
 H     3.768304    -2.762032    -2.608814
 H    -3.768304     2.762032     2.608814
 H    -3.613280     1.050579    -3.825530
 H     3.613280    -1.050579     3.825530
 H     3.620120     3.770478    -1.028055
 H    -3.620120    -3.770478     1.028055
 H     3.413780    -2.492357    -4.325062
 H    -3.413780     2.492357     4.325062
 H    -3.260816     2.700558    -4.370708
 H     3.260816    -2.700558     4.370708
 H     3.204535     5.141807     0.017957
 H    -3.204535    -5.141807    -0.017957
