   66
scf done: -2157.132339
Cl     2.916038     2.533228     0.595031
Cl     0.708677    -3.231265    -0.666508
 C     0.443165    -0.534326    -0.330268
 C    -1.008816    -0.223456     0.020469
 C    -0.468211     1.405035     0.062330
 C     0.922076     0.762158    -0.038518
 C     2.270144     1.004412     0.056711
 C     3.195624    -0.045869    -0.254007
 C     4.598780     0.157957    -0.250237
 C     5.472919    -0.860564    -0.552425
 C     4.984367    -2.143487    -0.868159
 C     3.629731    -2.382224    -0.874846
 C     2.698473    -1.356521    -0.575946
 C     1.287043    -1.591953    -0.550281
 C    -1.314199    -0.975545     1.357684
 C    -0.274948    -1.439995     2.184791
 C    -0.522668    -2.169755     3.344607
 C    -1.827537    -2.473432     3.724405
 C    -2.872955    -2.040209     2.915677
 C    -2.618063    -1.316714     1.750761
 C    -2.111138    -0.581322    -0.973079
 C    -1.919811    -1.546595    -1.968674
 C    -2.944759    -1.902259    -2.843576
 C    -4.197799    -1.301224    -2.746534
 C    -4.409775    -0.340765    -1.759854
 C    -3.380888     0.009071    -0.886085
 C    -0.812793     2.239614     1.382072
 C    -2.319641     2.194396     1.698028
 C    -0.419472     3.735435     1.355847
 C    -0.077269     1.695172     2.625880
 C    -0.680183     2.204889    -1.343110
 C    -0.593373     1.320277    -2.611613
 C    -2.012532     2.967450    -1.473894
 C     0.470178     3.218943    -1.561288
 H     4.980767     1.145180    -0.009436
 H     6.544248    -0.671407    -0.548092
 H     5.677093    -2.947118    -1.108496
 H     3.252489    -3.371235    -1.116998
 H     0.758155    -1.216433     1.938204
 H     0.318023    -2.503592     3.949855
 H    -2.024038    -3.047589     4.627589
 H    -3.903111    -2.276079     3.176392
 H    -3.465553    -1.041787     1.132910
 H    -0.948381    -2.011445    -2.088450
 H    -2.754734    -2.651361    -3.610053
 H    -4.997879    -1.575671    -3.431029
 H    -5.379780     0.144225    -1.665514
 H    -3.573522     0.759249    -0.124680
 H    -2.671600     1.173258     1.868935
 H    -2.931690     2.657115     0.917644
 H    -2.502754     2.752933     2.625939
 H    -0.893322     4.316687     0.562495
 H    -0.746473     4.175679     2.307252
 H     0.663858     3.876417     1.296903
 H    -0.237072     2.393126     3.458476
 H     1.004535     1.624716     2.466715
 H    -0.444582     0.722395     2.949852
 H     0.222526     0.590099    -2.571885
 H    -1.520932     0.793504    -2.835437
 H    -0.387917     1.981784    -3.463631
 H    -2.877930     2.303797    -1.412066
 H    -2.039614     3.430192    -2.469958
 H    -2.138146     3.773773    -0.747144
 H     0.212711     3.840399    -2.429140
 H     0.664856     3.890294    -0.728005
 H     1.405579     2.703934    -1.805239
