   66
scf done: -1139.362161
 N     1.361899    -0.259565     0.816405
 C     2.638480    -0.730652     0.341972
 C     0.835900     0.987137     0.479490
 C     2.710423    -1.576820    -0.777456
 C     3.969128    -2.024590    -1.198431
 H     4.021254    -2.674028    -2.072807
 C     3.807239    -0.416838     1.071495
 C     5.033099    -0.904015     0.622031
 H     5.931886    -0.658656     1.187950
 C     5.141975    -1.692475    -0.527421
 C     1.497484    -2.066506    -1.519638
 H     0.575180    -1.815685    -0.990886
 H     1.546780    -3.155878    -1.644557
 H     1.444570    -1.630336    -2.526769
 B     0.671783     1.387188    -1.180700
 H     1.122971     0.638700    -1.984185
 B     0.812360     2.332021     1.490836
 H     1.338910     2.198942     2.549910
 C     6.484422    -2.165042    -1.015058
 H     7.131240    -2.467004    -0.182115
 H     7.008680    -1.366721    -1.558901
 H     6.386865    -3.017626    -1.696822
 C     3.760947     0.406311     2.330228
 H     3.465717     1.442401     2.129026
 H     4.745320     0.424839     2.810033
 H     3.047518     0.007737     3.065135
 B     1.699815     2.319760    -0.043266
 H     2.879704     2.187403    -0.116341
 B     0.720113     3.165766    -1.245163
 H     1.244391     3.733227    -2.152830
 B     0.762920     3.754307     0.440003
 H     1.324562     4.755839     0.760797
 H     1.185675    -0.482780     1.790698
 N    -1.361837    -0.259651    -0.816246
 C    -2.638472    -0.730643    -0.341854
 C    -0.835832     0.987084    -0.479458
 C    -2.710565    -1.576628     0.777709
 C    -3.969329    -2.024294     1.198615
 H    -4.021573    -2.673581     2.073096
 C    -3.807135    -0.416951    -1.071579
 C    -5.033058    -0.904029    -0.622179
 H    -5.931768    -0.658776    -1.188265
 C    -5.142089    -1.692274     0.527405
 C    -1.497733    -2.066231     1.520117
 H    -0.575355    -1.815493     0.991456
 H    -1.547060    -3.155587     1.645174
 H    -1.444954    -1.629929     2.527198
 B    -0.671711     1.387323     1.180692
 H    -1.122900     0.638922     1.984259
 B    -0.812283     2.331857    -1.490950
 H    -1.338835     2.198660    -2.550010
 C    -6.484602    -2.164732     1.014966
 H    -7.131399    -2.466637     0.181988
 H    -7.008820    -1.366368     1.558785
 H    -6.387153    -3.017325     1.696735
 C    -3.760664     0.405903    -2.330500
 H    -3.465464     1.442040    -2.129496
 H    -4.744968     0.424318    -2.810451
 H    -3.047126     0.007159    -3.065208
 B    -1.699737     2.319771     0.043155
 H    -2.879625     2.187431     0.116248
 B    -0.720032     3.165908     1.244955
 H    -1.244307     3.733474     2.152558
 B    -0.762836     3.754261    -0.440276
 H    -1.324476     4.755758    -0.761182
 H    -1.185553    -0.483003    -1.790497
