   62
scf done: -1979.993401
 I     3.535469     1.553862    -0.234344
 I    -3.536007     1.552505     0.235017
 C     0.833989    -1.036548    -0.175878
 C    -0.833643    -1.036920     0.175618
 C    -0.696476     0.477421     0.101481
 C    -1.425637     1.634928     0.129179
 C    -0.723332     2.882261     0.051390
 C    -1.389976     4.132622     0.092737
 C    -0.703430     5.323625     0.046318
 C     0.701483     5.323900    -0.044903
 C     1.388479     4.133165    -0.091494
 C     0.722316     2.882541    -0.050282
 C     1.425079     1.635486    -0.128364
 C     0.696352     0.477700    -0.100927
 C     1.118177    -1.586707    -1.562616
 C     1.660124    -0.798841    -2.582396
 C     1.913337    -1.332473    -3.847319
 C     1.624189    -2.666709    -4.118553
 C     1.071393    -3.462955    -3.114999
 C     0.818880    -2.926434    -1.856239
 C     1.772343    -1.589775     0.896868
 C     1.819846    -0.972309     2.158145
 C     2.671317    -1.431377     3.157455
 C     3.511317    -2.519377     2.920123
 C     3.490028    -3.131854     1.670426
 C     2.633908    -2.670315     0.669585
 C    -1.771888    -1.589740    -0.897443
 C    -1.819387    -0.971636    -2.158414
 C    -2.670864    -1.430191    -3.157944
 C    -3.510869    -2.518319    -2.921187
 C    -3.489562    -3.131439    -1.671828
 C    -2.633435    -2.670406    -0.670733
 C    -1.117545    -1.587983     1.562070
 C    -0.817837    -2.927796     1.854880
 C    -1.069974    -3.465090     3.113380
 C    -1.622791    -2.669560     4.117497
 C    -1.912360    -1.335258     3.847075
 C    -1.659504    -0.800842     2.582404
 H    -2.474198     4.135942     0.169260
 H    -1.249150     6.263975     0.082218
 H     1.246845     6.264459    -0.080704
 H     2.472695     4.136914    -0.168071
 H     1.883597     0.248251    -2.397093
 H     2.336639    -0.695010    -4.621287
 H     1.819099    -3.082918    -5.104933
 H     0.824373    -4.503769    -3.315083
 H     0.363910    -3.555044    -1.093458
 H     1.176715    -0.120515     2.365116
 H     2.678944    -0.932910     4.124776
 H     4.180944    -2.878557     3.699203
 H     4.150262    -3.971591     1.460886
 H     2.657178    -3.151616    -0.303457
 H    -1.176242    -0.119746    -2.364944
 H    -2.678494    -0.931249    -4.125022
 H    -4.180537    -2.877050    -3.700441
 H    -4.149752    -3.971316    -1.462724
 H    -2.656723    -3.152223     0.302051
 H    -0.362889    -3.555867     1.091643
 H    -0.822637    -4.505950     3.312828
 H    -1.817394    -3.086396     5.103673
 H    -2.335697    -0.698344     4.621473
 H    -1.883272     0.246302     2.397751
