   62
scf done: -6531.644687
Br     1.762358     3.301649    -0.395823
Br     1.762312    -3.301625     0.395986
 C    -0.861555     0.827513    -0.204287
 C    -0.861586    -0.827468     0.204306
 C     0.652347    -0.690344     0.131370
 C     1.812021    -1.413860     0.194101
 C     3.058828    -0.717920     0.084742
 C     4.306665    -1.386024     0.156901
 C     5.496170    -0.700086     0.078181
 C     5.496174     0.700100    -0.077932
 C     4.306670     1.386037    -0.156673
 C     3.058836     0.717941    -0.084516
 C     1.812043     1.413894    -0.193879
 C     0.652367     0.690388    -0.131116
 C    -1.417830     1.072726    -1.595861
 C    -2.751491     0.742933    -1.884033
 C    -3.292665     0.965530    -3.146406
 C    -2.507332     1.518893    -4.158151
 C    -1.180010     1.841462    -3.890565
 C    -0.641791     1.618966    -2.622092
 C    -1.409575     1.798276     0.841856
 C    -0.778938     1.894431     2.093220
 C    -1.240907     2.769012     3.070760
 C    -2.345602     3.582714     2.820707
 C    -2.970992     3.513650     1.579201
 C    -2.505642     2.635706     0.599674
 C    -1.409459    -1.798197    -0.841938
 C    -0.778552    -1.894430    -2.093154
 C    -1.240419    -2.768950    -3.070798
 C    -2.345265    -3.582517    -2.820993
 C    -2.970913    -3.513389    -1.579620
 C    -2.505673    -2.635504    -0.599988
 C    -1.418032    -1.072757     1.595796
 C    -0.642100    -1.619174     2.622021
 C    -1.180430    -1.841814     3.890421
 C    -2.507761    -1.519209     4.157937
 C    -3.292982    -0.965674     3.146200
 C    -2.751694    -0.742940     1.883897
 H     4.307729    -2.465018     0.281732
 H     6.437669    -1.241748     0.138519
 H     6.437673     1.241760    -0.138231
 H     4.307742     2.465028    -0.281542
 H    -3.370754     0.286370    -1.114758
 H    -4.328227     0.694515    -3.342670
 H    -2.926906     1.689798    -5.147596
 H    -0.552317     2.269046    -4.670185
 H     0.397519     1.874146    -2.436877
 H     0.084591     1.270347     2.309858
 H    -0.731614     2.815596     4.031366
 H    -2.707416     4.269914     3.583143
 H    -3.823384     4.153994     1.359120
 H    -2.997190     2.620822    -0.368480
 H     0.085114    -1.270470    -2.309599
 H    -0.730927    -2.815578    -4.031297
 H    -2.706997    -4.269659    -3.583517
 H    -3.823420    -4.153643    -1.359724
 H    -2.997434    -2.620550     0.368056
 H     0.397218    -1.874361     2.436850
 H    -0.552827    -2.269549     4.670030
 H    -2.927424    -1.690221     5.147327
 H    -4.328546    -0.694631     3.342407
 H    -3.370878    -0.286253     1.114631
