   54
scf done: -1306.031610
 C     0.000085     0.647044     0.850236
 C    -0.000168     0.646867    -0.849707
 C     0.000515    -1.903934     0.676205
 C     0.000225    -1.904282    -0.677184
 C    -1.224085    -0.021133     1.450568
 C    -2.298031     0.636895     2.039464
 H    -2.311982     1.724545     2.081109
 C    -3.359863    -0.103219     2.569342
 H    -4.196687     0.414137     3.034601
 C    -3.353243    -1.494104     2.501888
 H    -4.184036    -2.063053     2.914692
 C    -2.283286    -2.165286     1.901247
 H    -2.277196    -3.251355     1.834974
 C    -1.225725    -1.432499     1.380768
 C     1.224724    -0.020731     1.450151
 C     2.298397     0.637666     2.039106
 H     2.312066     1.725332     2.080569
 C     3.360467    -0.102064     2.569054
 H     4.196968     0.415587     3.034558
 C     3.354352    -1.492950     2.501603
 H     4.185321    -2.061597     2.914468
 C     2.284683    -2.164506     1.900861
 H     2.279060    -3.250571     1.834430
 C     1.226891    -1.432110     1.380327
 C    -1.224670    -0.020983    -1.449744
 C    -2.298890     0.637557    -2.037680
 H    -2.312915     1.725243    -2.078319
 C    -3.360828    -0.102108    -2.567913
 H    -4.197919     0.415599    -3.032295
 C    -3.354128    -1.493055    -2.501808
 H    -4.184769    -2.061615    -2.915433
 C    -2.284040    -2.164767    -1.902035
 H    -2.278037    -3.250887    -1.836497
 C    -1.226465    -1.432435    -1.380982
 C     1.224272    -0.020674    -1.450161
 C     2.298121     0.638239    -2.038357
 H     2.311685     1.725934    -2.079068
 C     3.360223    -0.101045    -2.568777
 H     4.197032     0.416939    -3.033338
 C     3.353986    -1.492001    -2.502656
 H     4.184870    -2.060302    -2.916182
 C     2.284225    -2.164070    -1.902714
 H     2.278511    -3.250203    -1.837433
 C     1.226474    -1.432143    -1.381449
 C    -0.000182     2.151002     0.695539
 C    -0.000558     3.326252     1.435575
 H    -0.000534     3.339291     2.524049
 C    -0.000960     4.519683     0.699988
 H    -0.001176     5.472161     1.226985
 C    -0.001074     4.519538    -0.700259
 H    -0.001434     5.471878    -1.227504
 C    -0.000770     3.325884    -1.435487
 H    -0.000947     3.338530    -2.523956
 C    -0.000319     2.150875    -0.695079
