   23
scf done:  -739.308897
 C     7.878402     5.693804     9.886329
 C     8.068279     6.976140    10.372291
 C     7.048017     7.915671    10.232100
 C     5.857456     7.542314     9.604693
 C     5.718105     6.249744     9.137129
 N     6.719980     5.352915     9.282914
 C     6.529223     3.987050     8.770111
 C     7.558912     2.847081     8.852177
 C     5.427035     3.000931     9.215188
 C     6.248639     3.605171     7.300140
 C     6.293906     2.299859     8.136797
 I     6.031499     0.338287     7.405341
 H     8.626972     4.911985     9.960005
 H     9.009047     7.225866    10.853786
 H     7.177191     8.927981    10.606870
 H     5.039009     8.244350     9.475950
 H     4.823174     5.889004     8.640262
 H     7.764176     2.428737     9.843172
 H     8.455971     2.937501     8.230620
 H     4.397961     3.236020     8.924284
 H     5.501072     2.606180    10.233077
 H     7.065123     3.756451     6.587485
 H     5.270653     3.877861     6.890180
