   54
scf done:  -982.294405
 B     1.192263    -1.976817    -0.000000
 B     0.784674    -2.946888     1.452602
 B    -0.979435    -3.093807     1.449204
 B    -1.527568    -2.203655    -0.000000
 B     1.407820    -3.738913    -0.000000
 B     0.018722    -4.444813     0.881426
 B    -1.463717    -3.982071    -0.000000
 C    -0.203172    -1.690018     0.948540
 N    -0.350707    -0.447160     1.547873
 C     0.675236     0.043733     2.464641
 H     1.625719     0.077278     1.915331
 H     0.824892    -0.641102     3.314807
 C     0.324344     1.417023     2.983957
 C     0.552148     1.736733     4.325806
 H     0.956071     0.979205     4.996692
 C     0.266999     3.012128     4.811341
 H     0.450363     3.245046     5.858417
 C    -0.262338     3.981428     3.960618
 H    -0.491189     4.975578     4.339265
 C    -0.501984     3.668152     2.622528
 H    -0.916937     4.419197     1.952795
 C    -0.208575     2.395429     2.137842
 H    -0.395463     2.144633     1.095973
 H     2.050557    -1.154017    -0.000000
 H    -2.461745    -4.633553    -0.000000
 H     1.415132    -2.772048     2.446806
 H    -2.490514    -1.501541    -0.000000
 H     2.495409    -4.226081    -0.000000
 H    -1.624853    -2.995298     2.446065
 H     0.105698    -5.443801     1.525792
 H    -1.289077    -0.307440     1.909391
 B     0.784674    -2.946888    -1.452602
 B    -0.979435    -3.093807    -1.449204
 B     0.018722    -4.444813    -0.881426
 C    -0.203172    -1.690018    -0.948540
 N    -0.350707    -0.447160    -1.547873
 C     0.675236     0.043733    -2.464641
 H     1.625719     0.077278    -1.915331
 H     0.824892    -0.641102    -3.314807
 C     0.324344     1.417023    -2.983957
 C     0.552148     1.736733    -4.325806
 H     0.956071     0.979205    -4.996692
 C     0.266999     3.012128    -4.811341
 H     0.450363     3.245046    -5.858417
 C    -0.262338     3.981428    -3.960618
 H    -0.491189     4.975578    -4.339265
 C    -0.501984     3.668152    -2.622528
 H    -0.916937     4.419197    -1.952795
 C    -0.208575     2.395429    -2.137842
 H    -0.395463     2.144633    -1.095973
 H     1.415132    -2.772048    -2.446806
 H    -1.624853    -2.995298    -2.446065
 H     0.105698    -5.443801    -1.525792
 H    -1.289077    -0.307440    -1.909391
