   55
scf done: -1020.340201
 B    -2.266726    -0.033111    -1.454660
 H    -1.499241    -0.102995    -2.357611
 B    -3.058715     1.439456    -0.939013
 H    -2.891768     2.428995    -1.577338
 B    -2.970654     1.525552     0.842673
 H    -2.788650     2.572840     1.376706
 B    -2.158805     0.095158     1.473004
 H    -1.324751     0.117545     2.315385
 B    -3.035375    -1.347642     1.008378
 H    -2.874501    -2.346312     1.635225
 B    -3.089028    -1.429061    -0.777428
 H    -2.972604    -2.479917    -1.323136
 B    -4.003645    -0.008456    -1.373587
 H    -4.639331    -0.061372    -2.380097
 B    -3.891195     0.141956     1.510268
 H    -4.454701     0.218469     2.557452
 B    -4.487092    -0.821596     0.134972
 H    -5.496065    -1.451543     0.205799
 B    -4.459009     0.967500     0.037800
 H    -5.445463     1.635793     0.050140
 N    -0.340752     1.189703    -0.171331
 N    -0.376327    -1.182707     0.061914
 C    -1.710005     0.825026    -0.060987
 C    -1.742769    -0.782458     0.045264
 C     0.424920    -0.033377    -0.420625
 H     1.384237     0.011567     0.105458
 H     0.629642    -0.147040    -1.499559
 C    -0.055603    -2.443807    -0.593320
 H    -0.173415    -2.370022    -1.691140
 H    -0.782422    -3.187726    -0.241654
 C     1.346568    -2.898172    -0.258329
 C     1.799197    -2.885280     1.066408
 H     1.138912    -2.511154     1.847048
 C     3.079277    -3.335953     1.378770
 H     3.420388    -3.320905     2.412238
 C     3.922287    -3.808939     0.371560
 H     4.922197    -4.161433     0.616665
 C     3.479016    -3.823732    -0.949380
 H     4.131744    -4.185633    -1.741360
 C     2.198707    -3.365841    -1.261481
 H     1.857439    -3.372327    -2.296266
 C     0.207512     2.103867     0.829373
 H     0.364483     1.607353     1.802185
 H    -0.543409     2.887395     0.988975
 C     1.500429     2.729029     0.358674
 C     2.585907     2.842535     1.231127
 H     2.505704     2.445174     2.242663
 C     3.767577     3.459134     0.819119
 H     4.604734     3.539754     1.509752
 C     3.876942     3.961225    -0.476039
 H     4.799312     4.438162    -0.801522
 C     2.799491     3.844771    -1.356093
 H     2.879747     4.233080    -2.369694
 C     1.618887     3.233625    -0.941715
 H     0.778509     3.134558    -1.626401
