   72
scf done: -1217.889710
 N     1.582020     0.508596     0.233564
 N    -1.555968     0.502780     0.175510
 C     4.226636    -3.062875     0.380868
 H     4.022239    -4.089100     0.687217
 C     3.169218    -2.269134    -0.069042
 C    -3.431335    -0.908329    -0.526983
 C     3.421471    -0.940746    -0.462164
 C     0.977218     1.747033     0.194942
 C     2.279439    -0.066357    -0.924555
 H     2.650535     0.737915    -1.570662
 H     1.566431    -0.651507    -1.520339
 C     5.532889    -2.575893     0.452486
 B    -1.430318     3.100203    -0.674320
 C    -0.957744     1.743259     0.179803
 B     0.034040     2.171917    -1.157197
 C    -5.695890    -1.173280     0.287272
 H    -6.647937    -0.726012     0.574059
 C     4.729202    -0.422982    -0.378648
 C    -3.259205    -2.303915    -0.462775
 C     5.759443    -1.251265     0.073954
 H     6.769423    -0.845736     0.137359
 C    -2.299529    -0.015837    -0.980861
 H    -1.614220    -0.564665    -1.638159
 H    -2.694827     0.824731    -1.564657
 B     1.477202     3.111060    -0.643129
 B    -0.011544     2.108760     1.551916
 C    -4.664773    -0.338473    -0.148098
 B     0.028640     3.953290    -1.192186
 C    -4.317601    -3.103599    -0.022458
 H    -4.177498    -4.183882     0.021804
 C    -5.543651    -2.559560     0.361069
 B    -1.454147     3.064234     1.095736
 B     1.450527     3.055799     1.126142
 C     6.665536    -3.456231     0.906943
 H     7.131551    -3.970889     0.054618
 H     6.319543    -4.228772     1.603770
 H     7.451196    -2.875449     1.404559
 C     1.777560    -2.844601    -0.121944
 H     1.734226    -3.811819     0.390661
 H     1.446012    -3.007022    -1.157790
 H     1.047176    -2.175211     0.349572
 B    -0.870513     4.507630     0.252651
 C    -1.964769    -2.959316    -0.871039
 H    -1.969819    -4.023491    -0.610716
 H    -1.100891    -2.497827    -0.378562
 H    -1.796649    -2.888334    -1.955136
 B     0.890466     4.508593     0.275803
 C    -4.901685     1.147768    -0.221803
 H    -5.884524     1.404800     0.187692
 H    -4.872332     1.511847    -1.258435
 H    -4.147849     1.718296     0.335229
 B    -0.007985     3.881631     1.688882
 C    -6.660455    -3.434434     0.862898
 H    -6.669190    -3.473144     1.961477
 H    -6.558371    -4.463804     0.500205
 H    -7.639790    -3.056890     0.544918
 C     5.043885     1.000974    -0.760384
 H     6.090832     1.237357    -0.541712
 H     4.419191     1.722116    -0.217417
 H     4.883906     1.182668    -1.832302
 H     0.039942     1.443803    -2.097687
 H    -2.459076     2.909618     1.717852
 H    -0.017919     1.311876     2.437938
 H     1.532341     5.512770     0.308906
 H    -2.413215     3.009488    -1.340422
 H     2.439303     2.897112     1.773052
 H    -1.514450     5.510989     0.263159
 H     0.035602     4.553837    -2.221874
 H     2.479196     3.012902    -1.279696
 H    -0.017216     4.422721     2.751104
 H     2.017261     0.297066     1.123280
 H    -1.909497     0.203166     1.075229
