   66
scf done: -1539.839616
 C     0.000530     4.217881     1.634807
 C     0.000389     4.712542     0.343989
 C     0.000173     4.167444    -2.132145
 H     0.000649     4.910491     2.472652
 H     0.000383     5.785236     0.166025
 H     0.000168     5.216453    -2.418321
 C     0.000277     1.915670     0.862489
 C     0.000496     2.824155     1.907292
 C     0.000273     3.816113    -0.755835
 C     0.000105     3.179939    -3.099969
 C     0.000071     1.800180    -2.766436
 C     0.000116     1.431189    -1.438875
 C     0.000238     2.427538    -0.449201
 C    -0.000036     0.373548     0.887470
 C    -1.273665    -0.154679     1.607152
 C    -2.240406     0.732173     2.116973
 C    -3.419275     0.303138     2.723221
 C    -3.698667    -1.058493     2.817636
 C    -2.774192    -1.958145     2.308775
 C    -1.558072    -1.540841     1.730323
 C    -0.672894    -2.613480     1.298999
 C     0.671510    -2.613796     1.299138
 C     1.557058    -1.541493     1.730563
 C     1.273234    -0.155207     1.607349
 C     0.000059     0.013328    -0.839223
 C    -1.355806    -0.609882    -1.278798
 C    -2.466018     0.254341    -1.163885
 C    -3.769838    -0.111072    -1.477281
 C    -4.028191    -1.396350    -1.948673
 C    -2.961729    -2.267246    -2.088646
 C    -1.626414    -1.914053    -1.771972
 C    -0.671285    -2.981535    -2.021999
 C     0.671920    -2.981441    -2.021867
 C     1.626895    -1.913821    -1.771765
 C     1.356086    -0.609699    -1.278599
 H     0.000519     2.486201     2.939462
 H     0.000065     3.463329    -4.149497
 H     0.000015     1.052582    -3.554347
 H    -2.094948     1.798158     2.018694
 H    -4.125835     1.040612     3.095074
 H    -4.620542    -1.411677     3.271727
 H    -2.970976    -3.025902     2.368698
 H    -1.169265    -3.547217     1.042665
 H     1.167526    -3.547728     1.042844
 H    -2.311020     1.264263    -0.808512
 H    -4.573311     0.608766    -1.348203
 H    -5.036405    -1.711288    -2.203408
 H    -3.141820    -3.271330    -2.464954
 H    -1.138480    -3.927296    -2.291873
 H     1.139288    -3.927142    -2.291645
 H     2.311126     1.264462    -0.808008
 C     2.772970    -1.959266     2.309106
 C     3.697724    -1.059967     2.818080
 C     3.418848     0.301765     2.723715
 C     2.240212     0.731273     2.117344
 C     2.962294    -2.266921    -2.088199
 C     4.028673    -1.395973    -1.947951
 C     3.770140    -0.110750    -1.476542
 C     2.466235     0.254564    -1.163376
 H     2.969366    -3.027094     2.369018
 H     4.619431    -1.413501     3.272240
 H     4.125649     1.038948     3.095694
 H     2.095155     1.797321     2.019099
 H     3.142527    -3.270986    -2.464480
 H     5.036965    -1.710837    -2.202466
 H     4.573538     0.609141    -1.347265
