   70
scf done: -1617.251206
 H    -6.135710    -0.878550    -1.623044
 C    -4.336959    -0.000908     0.903968
 C    -3.494431    -0.000119    -0.216733
 C    -4.142783     0.000028    -1.462350
 C    -3.344916     0.000262    -2.594587
 C    -5.772505    -0.001150     0.389368
 C    -5.642814    -0.000496    -1.188156
 H    -3.779345     0.000314    -3.591624
 H    -6.328380    -0.879485     0.739143
 H    -6.328919     0.876610     0.739750
 H    -6.136175     0.877686    -1.622269
 H    -0.463335    -4.569017    -1.309369
 C    -1.471180    -0.000740     1.144033
 C    -2.300598    -0.001537     2.263322
 C    -3.729597    -0.001664     2.149083
 C    -1.915558     0.000376    -2.477971
 C    -1.295018     0.000188    -1.238858
 C    -2.107788    -0.000065    -0.102725
 C     0.063773    -0.000319     0.974674
 C     0.675843     1.277219     1.601469
 C    -0.150368     2.252333     2.191234
 C     0.340365     3.443567     2.720976
 C     1.703207     3.725861     2.655334
 C     2.542817     2.792359     2.066719
 C     2.066877     1.564767     1.561135
 C     3.088634     0.673175     1.031778
 C     3.089178    -0.671401     1.031831
 C     2.068081    -1.563818     1.561114
 C     2.544963    -2.790997     2.066792
 C     1.706000    -3.725315     2.655059
 C     0.342879    -3.444315     2.720200
 C    -0.148740    -2.253445     2.190441
 C     0.676782    -1.277494     1.601139
 C     0.193906     0.000052    -0.847279
 C     0.761345     1.353553    -1.346729
 C    -0.089230     2.463091    -1.149506
 C     0.240892     3.766064    -1.504115
 C     0.241725    -3.765840    -1.505265
 C    -0.088798    -2.463021    -1.150442
 C     0.761582    -1.353221    -1.347091
 H    -1.872693    -0.002141     3.262389
 H    -4.316927    -0.002385     3.064605
 H    -1.219202     2.097660     2.219727
 H    -0.351640     4.156212     3.162363
 H     2.102462     4.656926     3.048568
 H     3.609900     2.991237     2.002554
 H     3.994165     1.167037     0.684553
 H     3.995120    -1.164567     0.684688
 H     3.612246    -2.988918     2.002982
 H     2.105991    -4.656019     3.048394
 H    -0.348648    -4.157676     3.161185
 H    -1.217720    -2.099727     2.218546
 H    -1.056981     2.309253    -0.690890
 H    -0.464245     4.569050    -1.307722
 H    -1.056763    -2.309541    -0.692155
 H     1.759914    -5.032607    -2.390190
 C     1.473170     4.025610    -2.100172
 C     2.330946     2.961059    -2.315959
 C     2.012991     1.626957    -1.961169
 C     3.053384     0.672281    -2.307691
 C     3.053641    -0.671215    -2.307554
 C     2.013459    -1.626235    -1.961253
 C     2.331848    -2.960163    -2.316240
 C     1.474247    -4.024968    -2.100972
 H    -1.321314     0.000534    -3.388218
 H     1.758496     5.033387    -2.389256
 H     3.294158     3.141267    -2.787313
 H     3.971190     1.139715    -2.660705
 H     3.971635    -1.138361    -2.660445
 H     3.295235    -3.140060    -2.787357
