   66
scf done: -2158.973655
Cl    -2.019603     3.060583    -0.794741
Cl    -1.942376    -3.084868     0.883210
 C    -0.718163    -0.692739     0.193574
 C     0.815231    -0.718277     0.398256
 C     0.782957     0.749643    -0.444814
 C    -0.741252     0.666927    -0.226984
 C    -1.925980     1.347490    -0.373836
 C    -3.169698     0.656165    -0.179454
 C    -4.428626     1.296008    -0.334351
 C    -5.610428     0.607032    -0.179743
 C    -5.591031    -0.765664     0.140229
 C    -4.390482    -1.418405     0.307993
 C    -3.149423    -0.741975     0.162595
 C    -1.886281    -1.395185     0.369661
 C     1.635094    -1.856511    -0.216291
 C     1.031220    -3.003756    -0.751073
 C     1.784987    -4.072308    -1.242635
 C     3.177272    -4.024835    -1.218323
 C     3.801803    -2.884956    -0.710640
 C     3.041616    -1.821613    -0.223041
 C     1.086912    -0.673333     2.025075
 C     0.011389     0.140478     2.786271
 C     1.020526    -2.126429     2.559094
 C     2.454614    -0.119974     2.495846
 C     1.557089     1.913587     0.180772
 C     0.909584     2.962015     0.851880
 C     1.617083     4.032636     1.404712
 C     3.005593     4.088090     1.304942
 C     3.674691     3.045341     0.662250
 C     2.961870     1.977542     0.118306
 C     1.031208     0.698388    -2.069727
 C     0.143660    -0.349218    -2.786698
 C     0.649811     2.076268    -2.665355
 C     2.486006     0.447327    -2.540357
 H    -4.450814     2.348880    -0.585772
 H    -6.557239     1.124121    -0.307668
 H    -6.522917    -1.311595     0.257140
 H    -4.384613    -2.471528     0.558942
 H    -0.046526    -3.074025    -0.787206
 H     1.273186    -4.943335    -1.643673
 H     3.766654    -4.856389    -1.594921
 H     4.886507    -2.815157    -0.697050
 H     3.561123    -0.943639     0.137392
 H    -0.987380    -0.293846     2.695916
 H     0.269235     0.140249     3.851729
 H    -0.034876     1.183832     2.468075
 H     1.873711    -2.721688     2.223345
 H     1.043013    -2.102326     3.655449
 H     0.109417    -2.643064     2.260232
 H     2.563799     0.952249     2.345157
 H     2.525287    -0.303214     3.575119
 H     3.306624    -0.630167     2.043355
 H    -0.166358     2.952114     0.954272
 H     1.071589     4.823416     1.913122
 H     3.559049     4.921816     1.728381
 H     4.759511     3.052204     0.592592
 H     3.521206     1.167496    -0.328860
 H     0.413885    -1.377098    -2.539329
 H    -0.921490    -0.210470    -2.585412
 H     0.282596    -0.229699    -3.867638
 H    -0.419368     2.276481    -2.607079
 H     1.181737     2.899469    -2.180208
 H     0.923157     2.086098    -3.727491
 H     2.467256     0.344936    -3.632063
 H     3.142380     1.292700    -2.323712
 H     2.931187    -0.464548    -2.144920
