   66
scf done: -2158.958487
Cl     2.946042     2.530096     0.608361
Cl     0.697379    -3.249668    -0.679573
 C     0.447990    -0.540738    -0.317975
 C    -1.014286    -0.236238     0.021271
 C    -0.453191     1.422216     0.074469
 C     0.934365     0.756156    -0.027253
 C     2.285117     0.988426     0.066447
 C     3.211229    -0.065599    -0.241669
 C     4.618559     0.128732    -0.232434
 C     5.487833    -0.894969    -0.536921
 C     4.991798    -2.174776    -0.862846
 C     3.634716    -2.405910    -0.874901
 C     2.706277    -1.375208    -0.570773
 C     1.290403    -1.598324    -0.546573
 C    -1.350023    -0.999889     1.356247
 C    -0.328178    -1.496572     2.189567
 C    -0.600507    -2.234741     3.341094
 C    -1.915623    -2.516755     3.706922
 C    -2.945354    -2.051280     2.893125
 C    -2.665615    -1.318971     1.737432
 C    -2.109618    -0.577657    -0.997680
 C    -1.913809    -1.529341    -2.007756
 C    -2.932125    -1.865378    -2.901571
 C    -4.183760    -1.257436    -2.809866
 C    -4.400459    -0.308669    -1.810414
 C    -3.377574     0.023017    -0.920116
 C    -0.799070     2.250385     1.416197
 C    -2.314041     2.204734     1.731352
 C    -0.402476     3.755421     1.413495
 C    -0.056902     1.685757     2.655135
 C    -0.658732     2.247261    -1.336284
 C    -0.555607     1.378068    -2.623631
 C    -2.000719     3.009860    -1.462355
 C     0.489160     3.279814    -1.535583
 H     5.007558     1.109171     0.013626
 H     6.558920    -0.713451    -0.526804
 H     5.679770    -2.979805    -1.105329
 H     3.255492    -3.389887    -1.123650
 H     0.709272    -1.297326     1.954534
 H     0.227279    -2.591150     3.948489
 H    -2.132083    -3.095920     4.600425
 H    -3.981231    -2.267107     3.142235
 H    -3.502683    -1.019880     1.122615
 H    -0.948246    -2.000596    -2.122524
 H    -2.737664    -2.603533    -3.675354
 H    -4.976942    -1.515709    -3.506197
 H    -5.366589     0.181601    -1.720859
 H    -3.572312     0.763532    -0.153974
 H    -2.671317     1.187794     1.899293
 H    -2.923388     2.668513     0.952003
 H    -2.499650     2.761284     2.658049
 H    -0.897753     4.353941     0.648770
 H    -0.700988     4.174216     2.381756
 H     0.676423     3.895666     1.326658
 H    -0.264686     2.334419     3.514402
 H     1.027105     1.677190     2.512725
 H    -0.377850     0.684657     2.926775
 H     0.274520     0.666973    -2.596845
 H    -1.468817     0.835798    -2.855198
 H    -0.366360     2.054249    -3.465521
 H    -2.862120     2.343475    -1.423206
 H    -2.023535     3.499009    -2.444059
 H    -2.133380     3.793686    -0.716285
 H     0.242497     3.895045    -2.409153
 H     0.656529     3.957880    -0.704859
 H     1.435394     2.780602    -1.758849
