   66
scf done: -1140.760856
 N     1.405691    -0.239161     0.825284
 C     2.680626    -0.728841     0.340174
 C     0.871816     1.008606     0.492419
 C     2.739557    -1.577789    -0.779902
 C     3.994554    -2.034461    -1.209211
 H     4.036845    -2.676626    -2.087215
 C     3.859021    -0.417893     1.060029
 C     5.079728    -0.915315     0.602828
 H     5.983690    -0.668337     1.156070
 C     5.174612    -1.714155    -0.542835
 C     1.517211    -2.057797    -1.525908
 H     0.597439    -1.791653    -1.006020
 H     1.550673    -3.147659    -1.642074
 H     1.474164    -1.629456    -2.535373
 B     0.653056     1.394793    -1.179601
 H     1.099235     0.656424    -1.987266
 B     0.831616     2.357657     1.492020
 H     1.364126     2.238802     2.544572
 C     6.510102    -2.244257    -1.009973
 H     6.833020    -3.099563    -0.401535
 H     7.292611    -1.480893    -0.933652
 H     6.464868    -2.580136    -2.050895
 C     3.829949     0.420728     2.316914
 H     3.545330     1.456903     2.110314
 H     4.816127     0.431762     2.790194
 H     3.116912     0.036392     3.057674
 B     1.709286     2.340430    -0.057207
 H     2.885087     2.228720    -0.147597
 B     0.712727     3.176763    -1.256822
 H     1.228051     3.745577    -2.163347
 B     0.765351     3.775651     0.433132
 H     1.324224     4.776660     0.745660
 H     1.219661    -0.485428     1.791173
 N    -1.405778    -0.239003    -0.825279
 C    -2.680716    -0.728689    -0.340166
 C    -0.871792     1.008707    -0.492360
 C    -2.739591    -1.577907     0.779710
 C    -3.994566    -2.034665     1.208991
 H    -4.036805    -2.677052     2.086836
 C    -3.859154    -0.417600    -1.059899
 C    -5.079838    -0.915108    -0.602728
 H    -5.983829    -0.668012    -1.155871
 C    -5.174663    -1.714191     0.542769
 C    -1.517206    -2.058182     1.525481
 H    -0.597465    -1.792027     1.005541
 H    -1.550762    -3.148062     1.641439
 H    -1.473998    -1.630044     2.535025
 B    -0.652993     1.394815     1.179678
 H    -1.099242     0.656464     1.987316
 B    -0.831458     2.357795    -1.491910
 H    -1.363974     2.239033    -2.544469
 C    -6.510130    -2.244385     1.009867
 H    -6.833170    -3.099449     0.401155
 H    -7.292602    -1.480946     0.933913
 H    -6.464798    -2.580642     2.050663
 C    -3.830174     0.421245    -2.316635
 H    -3.545579     1.457393    -2.109871
 H    -4.816381     0.432333    -2.789854
 H    -3.117173     0.037061    -3.057510
 B    -1.709130     2.340592     0.057318
 H    -2.884943     2.228999     0.147705
 B    -0.712489     3.176785     1.256963
 H    -1.227758     3.745617     2.163509
 B    -0.765055     3.775741    -0.432969
 H    -1.323831     4.776815    -0.745461
 H    -1.219774    -0.485229    -1.791183
