   62
scf done: -6533.964609
Br     1.774743     3.328871    -0.344535
Br     1.774631    -3.329055     0.344854
 C    -0.866947     0.848664    -0.171272
 C    -0.867103    -0.848598     0.171329
 C     0.653072    -0.694852     0.117204
 C     1.816382    -1.414953     0.169434
 C     3.068208    -0.720901     0.074787
 C     4.319361    -1.390244     0.137299
 C     5.509638    -0.702270     0.068612
 C     5.509690     0.701883    -0.068223
 C     4.319454     1.389927    -0.136927
 C     3.068264     0.720661    -0.074415
 C     1.816483     1.414792    -0.169049
 C     0.653158     0.694740    -0.116665
 C    -1.452043     1.162091    -1.544810
 C    -2.801474     0.876844    -1.818398
 C    -3.366398     1.168295    -3.058168
 C    -2.589993     1.745424    -4.065803
 C    -1.247302     2.021596    -3.815579
 C    -0.686143     1.730743    -2.569113
 C    -1.389932     1.780342     0.935360
 C    -0.751667     1.806263     2.189195
 C    -1.189969     2.644538     3.211133
 C    -2.278907     3.494168     3.007782
 C    -2.912469     3.496160     1.767094
 C    -2.471243     2.653785     0.743497
 C    -1.389994    -1.780134    -0.935498
 C    -0.751253    -1.806457    -2.189070
 C    -1.189653    -2.644523    -3.211142
 C    -2.279150    -3.493524    -3.008185
 C    -2.913196    -3.495113    -1.767743
 C    -2.471878    -2.652951    -0.744016
 C    -1.452646    -1.162048     1.544664
 C    -0.687139    -1.731305     2.568947
 C    -1.248628    -2.022295     3.815229
 C    -2.591257    -1.745658     4.065295
 C    -3.367247    -1.167911     3.057704
 C    -2.801986    -0.876305     1.818112
 H     4.324017    -2.468474     0.245564
 H     6.449865    -1.243914     0.121299
 H     6.449955     1.243455    -0.120862
 H     4.324158     2.468154    -0.245241
 H    -3.417723     0.410416    -1.056038
 H    -4.412198     0.934380    -3.239219
 H    -3.026831     1.970041    -5.035154
 H    -0.626666     2.465881    -4.589463
 H     0.360651     1.951489    -2.400583
 H     0.099618     1.160692     2.374695
 H    -0.674160     2.634798     4.167672
 H    -2.620852     4.151220     3.803137
 H    -3.751246     4.162618     1.582323
 H    -2.969805     2.698776    -0.216472
 H     0.100424    -1.161337    -2.374297
 H    -0.673506    -2.635092    -4.167502
 H    -2.621152    -4.150387    -3.803667
 H    -3.752418    -4.161090    -1.583272
 H    -2.970811    -2.697605     0.215769
 H     0.359594    -1.952390     2.400525
 H    -0.628306    -2.467070     4.589085
 H    -3.028354    -1.970385     5.034506
 H    -4.412982    -0.933628     3.238632
 H    -3.417915    -0.409344     1.055823
