   58
scf done: -1979.431156
 I     3.557719     1.708888    -0.000621
 I    -3.558022     1.708305    -0.000262
 C     0.868550    -0.833127    -0.000006
 C    -0.868422    -0.833273    -0.000105
 C    -0.705633     0.673475    -0.000319
 C    -1.433237     1.829591    -0.000191
 C    -0.727627     3.081117    -0.000104
 C    -1.396150     4.334020     0.000063
 C    -0.705486     5.525427     0.000151
 C     0.704531     5.525552     0.000077
 C     1.395398     4.334264    -0.000079
 C     0.727087     3.081246    -0.000175
 C     1.432917     1.829846    -0.000311
 C     0.705517     0.673606    -0.000372
 C     1.526837    -1.525249     1.178926
 C     1.565090    -1.166145     2.521281
 C     2.230173    -1.996958     3.432462
 C     2.851579    -3.171326     3.000060
 C     2.857449    -3.513317     1.644173
 C     2.211954    -2.676637     0.735036
 C     2.212018    -2.677180    -0.733559
 C     2.857521    -3.514592    -1.642021
 C     2.851735    -3.173650    -2.998168
 C     2.230392    -1.999590    -3.431508
 C     1.565301    -1.168049    -2.521006
 C     1.526973    -1.526103    -1.178371
 C    -1.526732    -1.525755     1.178629
 C    -1.565128    -1.167002     2.521074
 C    -2.230097    -1.998177     3.432003
 C    -2.851241    -3.172564     2.999272
 C    -2.856951    -3.514223     1.643303
 C    -2.211575    -2.677177     0.734411
 C    -2.211508    -2.677411    -0.734177
 C    -2.856776    -3.514715    -1.642895
 C    -2.850907    -3.173460    -2.998975
 C    -2.229721    -1.999208    -3.431988
 C    -1.564852    -1.167766    -2.521219
 C    -1.526608    -1.526122    -1.178673
 H    -2.480954     4.340591     0.000145
 H    -1.250448     6.465139     0.000293
 H     1.249330     6.465360     0.000138
 H     2.480201     4.341009    -0.000110
 H     1.110870    -0.242071     2.862642
 H     2.267470    -1.720198     4.482419
 H     3.358189    -3.810143     3.718616
 H     3.384521    -4.401750     1.305877
 H     3.384515    -4.402801    -1.303016
 H     3.358352    -3.813046    -3.716205
 H     2.267756    -1.723638    -4.481675
 H     1.111108    -0.244241    -2.863107
 H    -1.111124    -0.242923     2.862689
 H    -2.267500    -1.721695     4.482029
 H    -3.357774    -3.811657     3.717637
 H    -3.383804    -4.402690     1.304753
 H    -3.383690    -4.403076    -1.304162
 H    -3.357360    -3.812784    -3.717194
 H    -2.267001    -1.723033    -4.482098
 H    -1.110787    -0.243792    -2.863050
