   54
scf done: -1307.561559
 C    -0.000417     0.655612     0.862343
 C    -0.000099     0.656600    -0.861753
 C     0.000969    -1.907248     0.675538
 C     0.001154    -1.906482    -0.678378
 C    -1.227742    -0.019663     1.466506
 C    -2.300625     0.631665     2.068915
 H    -2.317536     1.716662     2.121266
 C    -3.360101    -0.114996     2.600677
 H    -4.193317     0.397656     3.074086
 C    -3.351496    -1.506744     2.523503
 H    -4.177158    -2.080003     2.936743
 C    -2.281316    -2.171873     1.911028
 H    -2.273658    -3.256133     1.839937
 C    -1.227703    -1.433492     1.387053
 C     1.227541    -0.018387     1.466702
 C     2.299640     0.634120     2.069232
 H     2.315335     1.719142     2.121590
 C     3.359887    -0.111371     2.601085
 H     4.192444     0.402186     3.074672
 C     3.352876    -1.503132     2.523812
 H     4.179158    -2.075484     2.937070
 C     2.283507    -2.169425     1.911205
 H     2.277049    -3.253690     1.840052
 C     1.229073    -1.432201     1.387232
 C    -1.227452    -0.017825    -1.466874
 C    -2.300480     0.634377    -2.068088
 H    -2.317333     1.719449    -2.119008
 C    -3.360063    -0.111520    -2.600691
 H    -4.193386     0.401791    -3.073191
 C    -3.351509    -1.503372    -2.525421
 H    -4.177227    -2.076016    -2.939399
 C    -2.281278    -2.169382    -1.914037
 H    -2.273691    -3.253730    -1.844318
 C    -1.227458    -1.431761    -1.389382
 C     1.227973    -0.016641    -1.466596
 C     2.300426     0.636695    -2.067647
 H     2.316131     1.721787    -2.118572
 C     3.360904    -0.108078    -2.599998
 H     4.193791     0.406089    -3.072334
 C     3.353814    -1.499950    -2.524655
 H     4.180279    -2.071733    -2.938336
 C     2.284126    -2.167074    -1.913563
 H     2.277605    -3.251433    -1.843920
 C     1.229417    -1.430563    -1.389101
 C    -0.001176     2.163952     0.697544
 C    -0.002516     3.341643     1.436681
 H    -0.002865     3.355011     2.523492
 C    -0.003340     4.539067     0.703088
 H    -0.004291     5.488802     1.231860
 C    -0.003035     4.539837    -0.698370
 H    -0.003745     5.490125    -1.226152
 C    -0.001887     3.343195    -1.433210
 H    -0.001763     3.357780    -2.520011
 C    -0.000916     2.164710    -0.695301
