   74
scf done: -1244.689188
 C    -0.636722    -0.031441    -0.120791
 C    -0.981044    -1.546578    -0.410302
 C     1.056337     0.187242     0.178202
 C    -2.414390    -1.742164    -0.973388
 C     1.226614     1.326651     1.228187
 C    -1.722009     0.385064     1.008347
 C     1.853972     0.594923    -1.130026
 C    -1.766532     1.898424     1.354924
 C    -2.463455     0.580544    -1.878178
 C     2.788661    -1.731018    -1.563164
 C    -1.033276     0.875322    -1.355246
 C    -3.185063     0.124968     0.439033
 C    -1.597191    -0.508278     2.264553
 C     3.303745     1.063334    -0.783804
 C     3.383564    -0.577158     1.076072
 C    -0.980557     2.390567    -1.032715
 C    -3.434802    -1.350670     0.113347
 C     1.924193    -1.036245     0.722862
 C    -3.484417     0.986128    -0.799026
 C     4.109822    -0.118979    -0.209659
 C     2.670462     1.747580     1.528331
 C     1.976508    -0.561774    -2.152269
 C     4.208727    -1.253011    -1.234831
 C     2.120164    -2.217848    -0.264893
 C    -1.866612    -1.991829     1.929628
 C     3.423028     0.550065     2.108792
 C    -1.982402     2.753873     0.083465
 C     3.317763     2.222493     0.220040
 C    -2.628856    -0.899273    -2.233295
 C    -3.392736     2.477401    -0.459155
 C    -0.890677    -2.461465     0.841349
 C    -3.290752    -2.181814     1.392187
 H    -0.361531     0.670900    -2.192225
 H     2.827795    -2.554618    -2.289057
 H     2.646874     2.570406     2.256494
 H     2.953865     0.228394     3.049659
 H    -1.907420    -1.188824    -3.011180
 H     0.109354    -2.522166     1.259269
 H    -4.499778     0.750816    -1.151957
 H    -2.619680     1.194002    -2.778413
 H     0.992636    -0.916501    -2.477224
 H    -1.259616     2.940938    -1.943122
 H     4.721139    -0.900152    -2.141323
 H     4.806450    -2.083033    -0.832462
 H    -3.869604     0.420844     1.249552
 H    -2.623902     2.055395     2.026000
 H    -4.153475     2.739928     0.289406
 H     4.351537     2.553552     0.392643
 H     0.027108     2.726716    -0.784747
 H     1.375390     1.447137    -1.616944
 H     2.768730     3.086764    -0.180218
 H    -3.631666    -1.080279    -2.645937
 H    -0.304724    -1.914969    -1.183851
 H     2.477942    -0.182331    -3.054511
 H     1.491780    -1.399882     1.660728
 H     3.768422     1.393191    -1.725293
 H    -3.475759    -3.246471     1.191359
 H    -4.038407    -1.859328     2.131089
 H    -0.605318    -0.408123     2.722566
 H    -2.529605    -2.808047    -1.219682
 H     4.465176     0.809117     2.344154
 H     0.755014     1.022264     2.167704
 H    -1.725181    -2.596029     2.836373
 H    -3.592270     3.088206    -1.351039
 H     0.710698     2.221052     0.890199
 H     2.767734    -2.963012     0.219389
 H     1.196061    -2.738250    -0.501744
 H    -0.898534     2.236148     1.915489
 H    -1.879927     3.817703     0.337661
 H    -4.454739    -1.460572    -0.285630
 H     3.898366    -1.458477     1.486558
 H    -1.152162    -3.485142     0.534799
 H    -2.321075    -0.165924     3.019377
 H     5.119918     0.228455     0.054622
