   23
scf done:  -739.915172
 C     7.812534     5.661630    10.023101
 C     7.995692     6.941541    10.521222
 C     7.045205     7.925691    10.242738
 C     5.928797     7.597439     9.467734
 C     5.790923     6.305079     8.993511
 N     6.724265     5.361369     9.274190
 C     6.530119     3.984114     8.767006
 C     7.607486     2.874928     8.729929
 C     5.509138     2.946828     9.310221
 C     6.115334     3.602774     7.323196
 C     6.291250     2.284654     8.135864
 I     6.021470     0.309152     7.397137
 H     8.510587     4.852844    10.197902
 H     8.876312     7.156161    11.116241
 H     7.172379     8.934862    10.621596
 H     5.169931     8.333535     9.227093
 H     4.954865     5.983246     8.385018
 H     7.928099     2.452555     9.686008
 H     8.435456     3.009796     8.029721
 H     4.450465     3.151234     9.132443
 H     5.698030     2.547539    10.309326
 H     6.847275     3.793394     6.535086
 H     5.094188     3.840537     7.014615
