   28
scf done:  -442.789483
 C    -0.792729     0.971368    -0.057631
 N    -2.046421     1.576059    -0.079384
 B    -0.433761     0.024247     1.324969
 C    -0.826036    -0.928225    -0.044966
 N    -2.100043    -1.488831    -0.059077
 B     0.483144    -1.450591     0.866171
 B     1.341183    -0.006191     1.426992
 B     1.935215    -0.909379    -0.006447
 B     1.966114     0.856604    -0.018231
 B     0.534050     1.459788     0.846754
 B     0.558857     1.447557    -0.931260
 B    -0.395141     0.005201    -1.416541
 B     0.507950    -1.462963    -0.911896
 B     1.381657    -0.026204    -1.468178
 H     1.971723    -0.043410    -2.498796
 H     0.313724    -2.438498     1.502040
 H     0.356232    -2.459979    -1.537937
 H    -1.216995     0.043895     2.214848
 H    -1.153505     0.012543    -2.327894
 H     2.977924     1.478805    -0.008222
 H     0.441975     2.440633    -1.570891
 H     0.399497     2.461495     1.469236
 H     2.924598    -1.566469     0.012353
 H     1.901782    -0.009051     2.474055
 H    -2.315077    -2.011587    -0.899723
 H    -2.339399    -1.998806     0.782844
 H    -2.266648     2.106200     0.755288
 H    -2.243175     2.094537    -0.927150
