   72
scf done: -1219.390194
 N     1.669789     0.587418     0.293938
 N    -1.554276     0.442573     0.075718
 C     4.311373    -2.980262     0.493169
 H     4.109205    -3.974854     0.886532
 C     3.238159    -2.191934     0.066451
 C    -3.460267    -0.952887    -0.608937
 C     3.486987    -0.897881    -0.437652
 C     1.000579     1.793986     0.244084
 C     2.326044    -0.027493    -0.878383
 H     2.669021     0.756355    -1.558988
 H     1.588759    -0.626054    -1.424973
 C     5.631316    -2.525448     0.428776
 B    -1.452598     3.056949    -0.700694
 C    -1.009174     1.706188     0.149084
 B     0.098513     2.211325    -1.121220
 C    -5.720597    -1.214579     0.227856
 H    -6.675232    -0.769435     0.502066
 C     4.811425    -0.414817    -0.499436
 C    -3.269402    -2.343910    -0.488201
 C     5.856713    -1.238736    -0.067738
 H     6.875774    -0.860318    -0.116531
 C    -2.326566    -0.061570    -1.080276
 H    -1.658818    -0.606056    -1.755710
 H    -2.718368     0.791158    -1.639800
 B     1.464990     3.226141    -0.512076
 B    -0.129187     2.050281     1.558456
 C    -4.703897    -0.383891    -0.249897
 B     0.000334     3.995536    -1.109920
 C    -4.315822    -3.139524    -0.004608
 H    -4.160540    -4.212558     0.087334
 C    -5.547216    -2.596036     0.364090
 B    -1.585301     2.990005     1.075513
 B     1.329879     3.071436     1.255074
 C     6.780336    -3.405033     0.863140
 H     7.129972    -4.038403     0.036618
 H     6.489237    -4.073112     1.681147
 H     7.635624    -2.809753     1.199807
 C     1.832864    -2.750380     0.143453
 H     1.802128    -3.637145     0.783898
 H     1.467275    -3.051532    -0.847838
 H     1.123193    -2.016814     0.539669
 B    -1.005796     4.468033     0.300779
 C    -1.964709    -3.007319    -0.877391
 H    -1.970391    -4.064853    -0.596387
 H    -1.101984    -2.538707    -0.391776
 H    -1.790713    -2.957903    -1.960426
 B     0.748567     4.543352     0.430369
 C    -4.969806     1.100496    -0.379986
 H    -5.969209     1.346002    -0.009152
 H    -4.915823     1.433262    -1.424619
 H    -4.249299     1.703876     0.183046
 B    -0.195414     3.818026     1.768686
 C    -6.659768    -3.464277     0.904199
 H    -6.877137    -3.225325     1.953240
 H    -6.399955    -4.526348     0.852971
 H    -7.590752    -3.317901     0.343238
 C     5.137884     0.968696    -1.022592
 H     6.204714     1.181986    -0.907094
 H     4.584260     1.753893    -0.494984
 H     4.898224     1.069831    -2.088920
 H     0.165512     1.526717    -2.085706
 H    -2.610921     2.786905     1.637565
 H    -0.142317     1.230626     2.417996
 H     1.334921     5.571014     0.540849
 H    -2.378860     2.964730    -1.435219
 H     2.274024     2.944540     1.964551
 H    -1.686215     5.442170     0.298475
 H     0.021596     4.632294    -2.112796
 H     2.500968     3.196692    -1.090108
 H    -0.272113     4.321223     2.842188
 H     2.132490     0.406431     1.175621
 H    -1.815522     0.041678     0.966585
