   50
scf done:  -981.073675
 B     5.868629     3.515213     3.659083
 B     4.336723     4.412145     3.521022
 B     3.567874     4.416458     5.123164
 B     5.877169     5.285751     3.643491
 B     4.446088     5.846236     4.559879
 C     4.464476     3.075347     4.575183
 C     2.733645     1.654069     3.942081
 H     2.085623     2.516800     3.743512
 N     3.942341     1.791212     4.342173
 C     2.116290     0.337309     3.754163
 C     0.758329     0.268593     3.406167
 H     0.196440     1.188020     3.257865
 C     0.127558    -0.966666     3.263587
 H    -0.925645    -1.011393     3.001299
 C     0.852313    -2.143013     3.463379
 H     0.362463    -3.107048     3.355622
 C     2.209417    -2.082732     3.804057
 H     2.770625    -3.000359     3.957855
 C     2.839813    -0.852171     3.951130
 H     3.888485    -0.784073     4.222000
 H     2.397833     4.264860     5.239183
 H     6.255496     2.734749     2.861641
 H     3.691034     4.247253     2.540086
 H     6.327351     5.866394     2.710595
 H     3.864188     6.843791     4.282269
 B     4.624882     3.515218     6.238102
 B     6.156788     4.412150     6.376159
 B     6.925637     4.416456     4.774017
 B     4.616343     5.285756     6.253687
 B     6.047423     5.846237     5.337297
 C     6.029035     3.075348     5.322003
 C     7.759863     1.654073     5.955114
 H     8.407885     2.516805     6.153681
 N     6.551170     1.791214     5.555017
 C     8.377221     0.337314     6.143031
 C     9.735182     0.268600     6.491028
 H    10.297069     1.188028     6.639330
 C    10.365956    -0.966658     6.633608
 H    11.419158    -1.011383     6.895897
 C     9.641202    -2.143006     6.433815
 H    10.131054    -3.107040     6.541573
 C     8.284098    -2.082727     6.093136
 H     7.722892    -3.000355     5.939338
 C     7.653700    -0.852167     5.946063
 H     6.605029    -0.784071     5.675193
 H     8.095678     4.264857     4.657999
 H     4.238015     2.734757     7.035546
 H     6.802477     4.247261     7.357095
 H     4.166160     5.866402     7.186581
 H     6.629324     6.843793     5.614903
