   68
scf done: -1616.249698
 C     1.568463     0.001374     1.102563
 C     2.452782     0.001901     2.181936
 C     3.875562     0.002405     1.999973
 C     4.428271     0.002524     0.723113
 C     3.510264     0.002235    -0.343835
 C     4.134110     0.001609    -1.606721
 C     3.287897     0.000521    -2.711450
 C     1.862772     0.000065    -2.540416
 C     1.289051     0.000549    -1.277787
 C     2.148446     0.001568    -0.172680
 C     5.750790     0.002246     0.065824
 C     5.577895     0.001696    -1.296009
 C     0.037197     0.000340     0.995591
 C    -0.557246     1.276580     1.600454
 C     0.272445     2.255911     2.169773
 C    -0.203116     3.502146     2.568275
 C    -1.545477     3.824992     2.381807
 C    -2.391476     2.867099     1.843939
 C    -1.937407     1.583667     1.485689
 C    -2.950990     0.670906     0.991182
 C    -2.950056    -0.674265     0.991273
 C    -1.935248    -1.585532     1.486003
 C    -2.387568    -2.869524     1.844491
 C    -1.540336    -3.826066     2.382786
 C    -0.198458    -3.501270     2.569435
 C     0.275434    -2.254511     2.170621
 C    -0.555539    -1.276502     1.600838
 C    -0.173853    -0.000111    -0.826182
 C    -0.762076     1.348626    -1.262509
 C     0.072018     2.456657    -1.010423
 C    -0.318406     3.773700    -1.211286
 C    -1.585266     4.043228    -1.724375
 C    -2.409403     2.975120    -2.030736
 C    -2.035311     1.627260    -1.818135
 C    -3.050070     0.669823    -2.215990
 C    -3.049332    -0.673214    -2.216051
 C    -2.033624    -1.629538    -1.817934
 C    -2.406300    -2.977825    -2.030346
 C    -1.581091    -4.045023    -1.723738
 C    -0.314546    -3.774097    -1.210575
 C     0.074476    -2.456623    -1.009870
 C    -0.760753    -1.349488    -1.262218
 H     2.071171     0.001819     3.198821
 H     4.501231     0.002554     2.889331
 H     3.680548    -0.000142    -3.725348
 H     1.232357    -0.000871    -3.424858
 H     6.706317     0.002435     0.576877
 H     1.332709     2.069606     2.258488
 H     0.486971     4.228057     2.989115
 H    -1.926883     4.805481     2.651955
 H    -3.444129     3.094794     1.699701
 H    -3.860120     1.154274     0.641087
 H    -3.858527    -1.158913     0.641255
 H    -3.439858    -3.098761     1.700063
 H    -1.920390    -4.807036     2.653101
 H     0.492547    -4.226092     2.990647
 H     1.335413    -2.066693     2.259471
 H     1.062565     2.288266    -0.610578
 H     0.364723     4.578382    -0.957209
 H    -1.919798     5.063424    -1.888212
 H    -3.393287     3.164887    -2.451827
 H    -3.960531     1.135504    -2.588101
 H    -3.959262    -1.139857    -2.588254
 H    -3.389936    -3.168670    -2.451530
 H    -1.914553    -5.065598    -1.887398
 H     0.369379    -4.578037    -0.956297
 H     1.064823    -2.287125    -0.609982
 H     6.376974     0.001374    -2.028122
