   66
scf done: -1540.058479
 C     0.000651     4.256728     1.552812
 C     0.000818     4.722269     0.251178
 C     0.000850     4.120916    -2.213186
 H     0.000732     4.967948     2.374229
 H     0.001034     5.790231     0.049241
 H     0.001065     5.162526    -2.523548
 C     0.000267     1.943057     0.830309
 C     0.000374     2.869844     1.856104
 C     0.000710     3.802818    -0.828877
 C     0.000716     3.111401    -3.157901
 C     0.000439     1.739379    -2.792985
 C     0.000297     1.406198    -1.458618
 C     0.000433     2.423688    -0.491822
 C     0.000010     0.409192     0.885917
 C    -1.273722    -0.111117     1.579573
 C    -2.250059     0.775365     2.061834
 C    -3.483623     0.345817     2.543503
 C    -3.799997    -1.010675     2.533276
 C    -2.848787    -1.909477     2.075519
 C    -1.577410    -1.495313     1.634646
 C    -0.672728    -2.558146     1.236411
 C     0.671893    -2.558338     1.236409
 C     1.576873    -1.495768     1.634657
 C     1.273561    -0.111488     1.579632
 C     0.000005     0.009531    -0.827081
 C    -1.350587    -0.622454    -1.215536
 C    -2.457723     0.232583    -1.047694
 C    -3.774932    -0.173425    -1.211592
 C    -4.044848    -1.482185    -1.605463
 C    -2.976848    -2.330445    -1.836733
 C    -1.628454    -1.938857    -1.656928
 C    -0.671782    -2.986337    -1.961924
 C     0.670809    -2.986562    -1.961929
 C     1.627827    -1.939416    -1.656880
 C     1.350390    -0.622935    -1.215450
 H     0.000248     2.549463     2.893470
 H     0.000827     3.371070    -4.213095
 H     0.000339     0.969219    -3.558162
 H    -2.075503     1.840159     2.016053
 H    -4.205314     1.079881     2.890875
 H    -4.769965    -1.361415     2.873678
 H    -3.071046    -2.973171     2.063769
 H    -1.160283    -3.494595     0.976478
 H     1.159180    -3.494925     0.976470
 H    -2.286754     1.255543    -0.742939
 H    -4.579442     0.530975    -1.023166
 H    -5.065095    -1.830080    -1.738638
 H    -3.166132    -3.348143    -2.168012
 H    -1.138358    -3.925190    -2.254054
 H     1.137070    -3.925569    -2.254064
 H     2.287168     1.254726    -0.742739
 C     2.848145    -1.910292     2.075501
 C     3.799595    -1.011764     2.533292
 C     3.483570     0.344811     2.543606
 C     2.250122     0.774711     2.061962
 C     2.976097    -2.331457    -1.836630
 C     4.044374    -1.483574    -1.605261
 C     3.774888    -0.174736    -1.211350
 C     2.457810     0.231718    -1.047517
 H     3.070119    -2.974045     2.063691
 H     4.769479    -1.362771     2.873660
 H     4.205452     1.078662     2.891031
 H     2.075843     1.839553     2.016243
 H     3.165052    -3.349206    -2.167940
 H     5.064507    -1.831818    -1.738395
 H     4.579630     0.529377    -1.022844
