   66
scf done: -2159.171049
Cl    -1.896937     2.951553    -1.181858
Cl    -1.896916    -2.951714     1.181741
 C    -0.702208    -0.653247     0.270177
 C     0.821908    -0.718745     0.449388
 C     0.821914     0.718685    -0.449364
 C    -0.702216     0.653122    -0.270228
 C    -1.871230     1.323455    -0.515578
 C    -3.122452     0.675605    -0.250874
 C    -4.369888     1.311069    -0.481817
 C    -5.559839     0.662450    -0.241610
 C    -5.559836    -0.662583     0.241554
 C    -4.369884    -1.311209     0.481737
 C    -3.122448    -0.675735     0.250816
 C    -1.871217    -1.323567     0.515529
 C     1.531322    -1.893664    -0.203886
 C     0.816506    -2.867362    -0.910933
 C     1.459724    -3.938565    -1.533756
 C     2.844291    -4.069031    -1.453897
 C     3.573761    -3.114227    -0.742771
 C     2.925599    -2.044761    -0.131658
 C     1.153757    -0.642129     2.039292
 C     0.026405     0.053066     2.835680
 C     1.257307    -2.091362     2.575613
 C     2.461729     0.078851     2.447774
 C     1.531210     1.893669     0.203917
 C     0.816273     2.867388     0.910809
 C     1.459367     3.938672     1.533621
 C     2.843933     4.069197     1.453882
 C     3.573523     3.114350     0.742936
 C     2.925482     2.044789     0.131861
 C     1.153890     0.642214    -2.039241
 C     0.026481    -0.052793    -2.835711
 C     1.257608     2.091483    -2.575417
 C     2.461817    -0.078874    -2.447667
 H    -4.373371     2.326809    -0.856914
 H    -6.500104     1.173237    -0.426837
 H    -6.500099    -1.173377     0.426769
 H    -4.373363    -2.326951     0.856821
 H    -0.260091    -2.792578    -0.985843
 H     0.870195    -4.670903    -2.078229
 H     3.349414    -4.901051    -1.935958
 H     4.654993    -3.195170    -0.671536
 H     3.525466    -1.305957     0.382510
 H    -0.901296    -0.523616     2.836420
 H     0.351452     0.154345     3.877405
 H    -0.190077     1.055952     2.463673
 H     2.194816    -2.567426     2.280802
 H     1.221928    -2.067418     3.671052
 H     0.438653    -2.720518     2.226572
 H     2.342278     1.159380     2.505373
 H     2.737671    -0.271914     3.449670
 H     3.308004    -0.126353     1.792879
 H    -0.260333     2.792544     0.985614
 H     0.869738     4.671015     2.077978
 H     3.348976     4.901313     1.935862
 H     4.654759     3.195343     0.671814
 H     3.525465     1.305937    -0.382140
 H    -0.190279    -1.055606    -2.463668
 H    -0.901078     0.524127    -2.836564
 H     0.351612    -0.154198    -3.877401
 H     0.439108     2.720744    -2.226229
 H     2.195213     2.567398    -2.280664
 H     1.222095     2.067645    -3.670854
 H     2.737927     0.271903    -3.449498
 H     3.307990     0.126214    -1.792612
 H     2.342286    -1.159396    -2.505334
