   66
scf done: -2159.155477
Cl     2.892392     2.567570     0.604228
Cl     0.713080    -3.224380    -0.703429
 C     0.446792    -0.526402    -0.350683
 C    -1.008206    -0.247633     0.022540
 C    -0.482614     1.403205     0.088844
 C     0.915376     0.772916    -0.045698
 C     2.259508     1.024142     0.045709
 C     3.196617    -0.015566    -0.275800
 C     4.599194     0.198283    -0.269985
 C     5.480485    -0.813192    -0.579864
 C     5.000802    -2.098257    -0.907778
 C     3.647113    -2.347334    -0.918591
 C     2.708382    -1.329987    -0.610526
 C     1.296666    -1.572132    -0.585207
 C    -1.295235    -1.027868     1.345325
 C    -0.243394    -1.500514     2.151080
 C    -0.474820    -2.249899     3.302226
 C    -1.775810    -2.564553     3.691131
 C    -2.833208    -2.123411     2.900090
 C    -2.594281    -1.380694     1.743050
 C    -2.108431    -0.587820    -0.974617
 C    -1.907834    -1.515901    -2.001843
 C    -2.926772    -1.835113    -2.898783
 C    -4.179522    -1.232700    -2.787772
 C    -4.399370    -0.312126    -1.763269
 C    -3.376151     0.001586    -0.869170
 C    -0.818078     2.195779     1.436713
 C    -2.323198     2.108485     1.769595
 C    -0.447717     3.702265     1.444486
 C    -0.047440     1.624810     2.651323
 C    -0.726375     2.232154    -1.295475
 C    -0.645269     1.377752    -2.590756
 C    -2.075116     2.980047    -1.385447
 C     0.412032     3.268584    -1.501394
 H     4.973792     1.183337    -0.021328
 H     6.548791    -0.618124    -0.572073
 H     5.698960    -2.892982    -1.153286
 H     3.277866    -3.334334    -1.169211
 H     0.781702    -1.267780     1.896556
 H     0.372117    -2.587731     3.892727
 H    -1.960244    -3.151952     4.585953
 H    -3.857492    -2.366915     3.168752
 H    -3.445818    -1.097529     1.141162
 H    -0.937477    -1.972727    -2.128768
 H    -2.732825    -2.552203    -3.691589
 H    -4.972904    -1.475147    -3.488902
 H    -5.367380     0.170312    -1.658755
 H    -3.566295     0.720862    -0.083563
 H    -2.648062     1.078895     1.919007
 H    -2.950645     2.572194     1.006019
 H    -2.510190     2.640059     2.709887
 H    -0.954226     4.295743     0.684873
 H    -0.747472     4.108822     2.416864
 H     0.628212     3.854854     1.352063
 H    -0.216831     2.280553     3.512733
 H     1.030409     1.594155     2.473670
 H    -0.379612     0.631720     2.934483
 H     0.175975     0.656735    -2.578842
 H    -1.567893     0.850486    -2.816421
 H    -0.456541     2.061408    -3.425876
 H    -2.924820     2.300738    -1.339227
 H    -2.120987     3.479597    -2.360433
 H    -2.204127     3.751952    -0.627338
 H     0.145374     3.902169    -2.355016
 H     0.600271     3.924668    -0.658826
 H     1.350584     2.770498    -1.755614
