   62
scf done: -1982.007554
 I     3.542514     1.537485    -0.285524
 I    -3.543393     1.536345     0.285139
 C     0.845282    -1.020475    -0.175530
 C    -0.844856    -1.020934     0.175962
 C    -0.695482     0.493137     0.109898
 C    -1.423196     1.648111     0.146385
 C    -0.724706     2.899428     0.059939
 C    -1.392565     4.150237     0.105917
 C    -0.704053     5.341235     0.051952
 C     0.701893     5.341494    -0.051995
 C     1.390831     4.150742    -0.105856
 C     0.723405     2.899712    -0.059798
 C     1.422353     1.648673    -0.146190
 C     0.695071     0.493457    -0.109447
 C     1.112473    -1.587429    -1.554436
 C     1.603376    -0.798921    -2.598140
 C     1.800527    -1.335489    -3.872480
 C     1.501377    -2.672330    -4.126716
 C     0.998536    -3.469062    -3.095359
 C     0.804415    -2.929701    -1.827445
 C     1.761795    -1.562096     0.914991
 C     1.795801    -0.926715     2.167991
 C     2.599419    -1.403666     3.198136
 C     3.403975    -2.527433     2.999209
 C     3.398773    -3.154970     1.755467
 C     2.588878    -2.675614     0.723663
 C    -1.760753    -1.563330    -0.914687
 C    -1.796249    -0.927165    -2.167232
 C    -2.599064    -1.405037    -3.197598
 C    -3.401285    -2.530585    -2.999360
 C    -3.394554    -3.159011    -1.756071
 C    -2.585504    -2.678710    -0.724061
 C    -1.112055    -1.588055     1.554799
 C    -0.802155    -2.929817     1.828208
 C    -0.996553    -3.469370     3.096005
 C    -1.501391    -2.673264     4.126861
 C    -1.802289    -1.336877     3.872251
 C    -1.604982    -0.800157     2.598007
 H    -2.473547     4.154056     0.190532
 H    -1.247321     6.280632     0.091661
 H     1.244814     6.281091    -0.091762
 H     2.471815     4.154912    -0.190436
 H     1.822334     0.247451    -2.424798
 H     2.183737    -0.699937    -4.665973
 H     1.649156    -3.088890    -5.118947
 H     0.743987    -4.508632    -3.280999
 H     0.385242    -3.552882    -1.044747
 H     1.179107    -0.053463     2.345286
 H     2.596070    -0.894818     4.157802
 H     4.032766    -2.902003     3.802040
 H     4.031358    -4.020353     1.577382
 H     2.618892    -3.169818    -0.238925
 H    -1.181256    -0.052639    -2.344163
 H    -2.596895    -0.895499    -4.156899
 H    -4.029413    -2.905883    -3.802371
 H    -4.025297    -4.025840    -1.578505
 H    -2.614275    -3.173798     0.238125
 H    -0.381273    -3.552365     1.045923
 H    -0.740596    -4.508537     3.281966
 H    -1.649355    -3.089910     5.119028
 H    -2.187037    -0.701822     4.665400
 H    -1.825347     0.245858     2.424340
