   62
scf done: -6534.163347
Br     1.756379     3.299276    -0.531552
Br     1.755270    -3.299264     0.532497
 C    -0.847400     0.835743    -0.224862
 C    -0.847487    -0.835600     0.224398
 C     0.666302    -0.685912     0.156262
 C     1.824032    -1.403810     0.247955
 C     3.075006    -0.716236     0.113522
 C     4.323450    -1.381988     0.210735
 C     5.513172    -0.697957     0.105348
 C     5.513333     0.696919    -0.104556
 C     4.323778     1.381216    -0.210087
 C     3.075169     0.715776    -0.113029
 C     1.824378     1.403681    -0.247614
 C     0.666425     0.686075    -0.156208
 C    -1.421440     1.029161    -1.612484
 C    -2.758895     0.687056    -1.867010
 C    -3.302623     0.807927    -3.141944
 C    -2.515824     1.273593    -4.197976
 C    -1.185378     1.611872    -3.959985
 C    -0.643914     1.487959    -2.678644
 C    -1.386868     1.804953     0.819324
 C    -0.744461     1.908320     2.064451
 C    -1.233480     2.745109     3.061905
 C    -2.374436     3.517057     2.835298
 C    -3.005438     3.448098     1.595282
 C    -2.514602     2.604744     0.596745
 C    -1.386445    -1.805044    -0.819842
 C    -0.744485    -1.907384    -2.065296
 C    -1.232875    -2.744671    -3.062615
 C    -2.372685    -3.518174    -2.835523
 C    -3.003157    -3.450277    -1.595185
 C    -2.512983    -2.606381    -0.596763
 C    -1.421979    -1.028777     1.611854
 C    -0.644553    -1.486393     2.678599
 C    -1.186403    -1.609760     3.959834
 C    -2.517103    -1.272009     4.197130
 C    -3.303818    -0.807547     3.140493
 C    -2.759740    -0.687350     1.865644
 H     4.325312    -2.452886     0.375763
 H     6.453418    -1.235278     0.185876
 H     6.453700     1.234042    -0.184934
 H     4.325934     2.452105    -0.375174
 H    -3.373636     0.295045    -1.064136
 H    -4.337301     0.524772    -3.312764
 H    -2.935368     1.364302    -5.195823
 H    -0.558964     1.971000    -4.771898
 H     0.396183     1.741352    -2.515871
 H     0.141956     1.317415     2.264526
 H    -0.720295     2.793153     4.018120
 H    -2.758994     4.171003     3.612966
 H    -3.883032     4.056612     1.394156
 H    -3.014119     2.583792    -0.363684
 H     0.141109    -1.315350    -2.265612
 H    -0.720131    -2.791906    -4.019106
 H    -2.756767    -4.172494    -3.613111
 H    -3.879777    -4.060083    -1.393727
 H    -3.011966    -2.586195     0.363948
 H     0.395771    -1.739267     2.516360
 H    -0.560093    -1.968070     4.772190
 H    -2.936930    -1.362203     5.194907
 H    -4.338706    -0.524824     3.310763
 H    -3.374462    -0.296387     1.062240
