   54
scf done: -1307.731881
 C     0.000006     0.645215     0.860468
 C    -0.000151     0.645143    -0.860325
 C     0.000366    -1.922013     0.677594
 C     0.000196    -1.922157    -0.677894
 C    -1.231036    -0.024040     1.441759
 C    -2.329444     0.639229     1.975809
 H    -2.340854     1.724533     2.008830
 C    -3.420560    -0.096933     2.453353
 H    -4.277445     0.422976     2.872471
 C    -3.415051    -1.489004     2.386801
 H    -4.267062    -2.054007     2.754289
 C    -2.317675    -2.165031     1.838995
 H    -2.315733    -3.248598     1.765518
 C    -1.233006    -1.437441     1.370286
 C     1.231374    -0.023709     1.441481
 C     2.329553     0.639877     1.975595
 H     2.340619     1.725187     2.008661
 C     3.420913    -0.095963     2.453090
 H     4.277593     0.424192     2.872315
 C     3.415870    -1.488027     2.386402
 H     4.268065    -2.052787     2.753839
 C     2.318720    -2.164372     1.838530
 H     2.317162    -3.247934     1.764925
 C     1.233790    -1.437113     1.369930
 C    -1.231357    -0.024020    -1.441368
 C    -2.329865     0.639405    -1.975069
 H    -2.341268     1.724708    -2.007851
 C    -3.421032    -0.096620    -2.452683
 H    -4.278034     0.423393    -2.871434
 C    -3.415499    -1.488716    -2.386584
 H    -4.267486    -2.053608    -2.754289
 C    -2.318051    -2.164900    -1.839124
 H    -2.316126    -3.248489    -1.765907
 C    -1.233387    -1.437442    -1.370234
 C     1.231098    -0.023730    -1.441613
 C     2.329353     0.639983    -1.975471
 H     2.340401     1.725291    -2.008366
 C     3.420735    -0.095740    -2.453066
 H     4.277540     0.424500    -2.871925
 C     3.415651    -1.487829    -2.386808
 H     4.267832    -2.052500    -2.754419
 C     2.318450    -2.164305    -1.839217
 H     2.316842    -3.247895    -1.765999
 C     1.233555    -1.437160    -1.370375
 C    -0.000183     2.151189     0.696837
 C    -0.000369     3.326563     1.435625
 H    -0.000280     3.337383     2.521950
 C    -0.000732     4.523604     0.700498
 H    -0.000883     5.473435     1.228182
 C    -0.000913     4.523530    -0.700778
 H    -0.001195     5.473303    -1.228562
 C    -0.000752     3.326376    -1.435732
 H    -0.000917     3.336946    -2.522052
 C    -0.000364     2.151144    -0.696738
