   74
scf done: -1244.907017
 C    -0.625300    -0.030857    -0.121143
 C    -0.964730    -1.539653    -0.412821
 C     1.037449     0.188076     0.176215
 C    -2.394555    -1.736064    -0.970768
 C     1.205409     1.326933     1.218937
 C    -1.699987     0.382386     1.004287
 C     1.829971     0.589988    -1.128772
 C    -1.745893     1.890151     1.355117
 C    -2.445826     0.581813    -1.870241
 C     2.753617    -1.734019    -1.551085
 C    -1.018655     0.870077    -1.351879
 C    -3.159751     0.125528     0.442984
 C    -1.565404    -0.508370     2.255131
 C     3.275767     1.055300    -0.789954
 C     3.354459    -0.572359     1.074654
 C    -0.956627     2.380310    -1.030135
 C    -3.410896    -1.344954     0.115017
 C     1.897862    -1.027772     0.727326
 C    -3.460848     0.985738    -0.790416
 C     4.078655    -0.121156    -0.210446
 C     2.644897     1.750318     1.514231
 C     1.941551    -0.569334    -2.142198
 C     4.173076    -1.256587    -1.229899
 C     2.091800    -2.213729    -0.250248
 C    -1.840521    -1.987580     1.922303
 C     3.396452     0.557753     2.099273
 C    -1.953153     2.745970     0.086543
 C     3.287435     2.218519     0.204155
 C    -2.609800    -0.894316    -2.227323
 C    -3.363380     2.474291    -0.453292
 C    -0.871563    -2.456340     0.832276
 C    -3.264806    -2.174117     1.391100
 H    -0.351480     0.658191    -2.188697
 H     2.789280    -2.560799    -2.272355
 H     2.621271     2.576441     2.237503
 H     2.925229     0.241428     3.040173
 H    -1.885330    -1.180809    -3.002685
 H     0.127046    -2.519612     1.248411
 H    -4.476607     0.751185    -1.139949
 H    -2.602861     1.198309    -2.767219
 H     0.954526    -0.922543    -2.455655
 H    -1.236968     2.931580    -1.938641
 H     4.681148    -0.905846    -2.138846
 H     4.769607    -2.085736    -0.825889
 H    -3.840366     0.419948     1.255982
 H    -2.610828     2.041923     2.016237
 H    -4.120440     2.739621     0.296949
 H     4.319556     2.554102     0.373276
 H     0.052556     2.709701    -0.785233
 H     1.354035     1.441827    -1.615336
 H     2.731111     3.075253    -0.200791
 H    -3.611966    -1.075724    -2.639352
 H    -0.289469    -1.900116    -1.188624
 H     2.438427    -0.197093    -3.048937
 H     1.463121    -1.378670     1.667904
 H     3.739787     1.377177    -1.733584
 H    -3.451448    -3.237910     1.191113
 H    -4.007695    -1.847024     2.131783
 H    -0.567767    -0.410971     2.698742
 H    -2.509771    -2.801494    -1.215136
 H     4.438626     0.817078     2.331013
 H     0.736492     1.021692     2.157917
 H    -1.696263    -2.592356     2.827282
 H    -3.560627     3.082784    -1.346398
 H     0.687804     2.217203     0.878855
 H     2.743828    -2.951776     0.237116
 H     1.170712    -2.737953    -0.482679
 H    -0.886140     2.225752     1.926654
 H    -1.846497     3.808555     0.340713
 H    -4.430462    -1.452066    -0.283294
 H     3.867867    -1.452580     1.486871
 H    -1.136970    -3.477228     0.522651
 H    -2.280375    -0.163752     3.016212
 H     5.088091     0.226654     0.052377
