   55
scf done: -1021.732143
 B    -2.301510    -0.182050    -1.445678
 H    -1.527764    -0.321498    -2.325663
 B    -3.126823     1.317083    -1.078371
 H    -2.971672     2.242589    -1.799559
 B    -3.057971     1.567810     0.691624
 H    -2.902177     2.657569     1.126756
 B    -2.233779     0.213814     1.464203
 H    -1.423932     0.329283     2.312827
 B    -3.076965    -1.280729     1.123009
 H    -2.908508    -2.209595     1.837875
 B    -3.104264    -1.526440    -0.648617
 H    -2.970099    -2.615699    -1.091745
 B    -4.035501    -0.186096    -1.385458
 H    -4.658304    -0.342495    -2.382877
 B    -3.962883     0.236489     1.474875
 H    -4.541293     0.398186     2.497849
 B    -4.522291    -0.863590     0.187764
 H    -5.517965    -1.498111     0.303026
 B    -4.525712     0.909870    -0.075554
 H    -5.521463     1.552079    -0.133209
 N    -0.411455     1.201081    -0.252518
 N    -0.404159    -1.156339     0.178176
 C    -1.778273     0.816177    -0.129932
 C    -1.780602    -0.785326     0.125525
 C     0.376685    -0.029565    -0.407957
 H     1.335974     0.072198     0.099825
 H     0.568573    -0.224567    -1.473086
 C    -0.072225    -2.457881    -0.405304
 H    -0.295617    -2.479120    -1.485382
 H    -0.717377    -3.202729     0.072989
 C     1.383729    -2.794742    -0.178404
 C     1.942254    -2.698281     1.102449
 H     1.318663    -2.358106     1.924451
 C     3.281491    -3.020050     1.313940
 H     3.704893    -2.940985     2.311269
 C     4.077942    -3.444657     0.246741
 H     5.121817    -3.696142     0.411141
 C     3.528627    -3.539786    -1.031550
 H     4.142864    -3.863403    -1.867166
 C     2.187981    -3.211537    -1.242097
 H     1.763329    -3.278419    -2.240627
 C     0.102068     2.164409     0.734571
 H     0.151830     1.729846     1.743042
 H    -0.616209     2.988257     0.772209
 C     1.465954     2.672746     0.330504
 C     2.545644     2.574821     1.212532
 H     2.397787     2.123142     2.190600
 C     3.808227     3.046788     0.846964
 H     4.638713     2.962268     1.542151
 C     4.000640     3.617039    -0.410628
 H     4.982013     3.982173    -0.699673
 C     2.926614     3.712874    -1.300591
 H     3.072324     4.155000    -2.282215
 C     1.667901     3.242281    -0.933029
 H     0.833452     3.302422    -1.625808
