   54
scf done:  -983.640000
 B     1.161747    -1.977282    -0.000000
 B     0.801647    -2.967157     1.456256
 B    -0.958970    -3.181107     1.452124
 B    -1.535208    -2.301083    -0.000000
 B     1.453638    -3.725761    -0.000000
 B     0.094429    -4.491043     0.880597
 B    -1.408617    -4.077708    -0.000000
 C    -0.233952    -1.751899     0.965480
 N    -0.411777    -0.511629     1.561275
 C     0.634026     0.036113     2.428805
 H     1.566300     0.037417     1.854195
 H     0.806636    -0.599730     3.309121
 C     0.297869     1.441032     2.872557
 C     0.628991     1.865726     4.163443
 H     1.092178     1.166723     4.855664
 C     0.371105     3.176386     4.566272
 H     0.634372     3.493784     5.571338
 C    -0.233065     4.074117     3.684562
 H    -0.437361     5.093400     3.999737
 C    -0.576439     3.653989     2.398097
 H    -1.048054     4.346140     1.705856
 C    -0.310724     2.345919     1.996009
 H    -0.575464     2.008941     1.000265
 H     1.989719    -1.132621    -0.000000
 H    -2.375963    -4.765012    -0.000000
 H     1.426761    -2.773225     2.442646
 H    -2.519546    -1.640408    -0.000000
 H     2.553718    -4.170058    -0.000000
 H    -1.609161    -3.114950     2.441877
 H     0.214979    -5.483227     1.520210
 H    -1.344009    -0.387004     1.939946
 B     0.801647    -2.967157    -1.456256
 B    -0.958970    -3.181107    -1.452124
 B     0.094429    -4.491043    -0.880597
 C    -0.233952    -1.751899    -0.965480
 N    -0.411777    -0.511629    -1.561275
 C     0.634026     0.036113    -2.428805
 H     1.566300     0.037417    -1.854195
 H     0.806636    -0.599730    -3.309121
 C     0.297869     1.441032    -2.872557
 C     0.628991     1.865726    -4.163443
 H     1.092178     1.166723    -4.855664
 C     0.371105     3.176386    -4.566272
 H     0.634372     3.493784    -5.571338
 C    -0.233065     4.074117    -3.684562
 H    -0.437361     5.093400    -3.999737
 C    -0.576439     3.653989    -2.398097
 H    -1.048054     4.346140    -1.705856
 C    -0.310724     2.345919    -1.996009
 H    -0.575464     2.008941    -1.000265
 H     1.426761    -2.773225    -2.442646
 H    -1.609161    -3.114950    -2.441877
 H     0.214979    -5.483227    -1.520210
 H    -1.344009    -0.387004    -1.939946
