   72
scf done: -1219.575599
 N     1.623439     0.574382     0.294363
 N    -1.497601     0.417978     0.091647
 C     4.229507    -2.991970     0.429486
 H     4.027002    -4.000058     0.785224
 C     3.164074    -2.199327    -0.003057
 C    -3.374749    -0.969639    -0.617813
 C     3.418771    -0.891817    -0.460013
 C     0.969644     1.787625     0.250353
 C     2.266951    -0.015452    -0.892067
 H     2.612317     0.779872    -1.557394
 H     1.525251    -0.599122    -1.446773
 C     5.544980    -2.520125     0.421464
 B    -1.458183     3.030437    -0.701991
 C    -0.980069     1.692009     0.155363
 B     0.085478     2.196628    -1.125873
 C    -5.637430    -1.191861     0.212129
 H    -6.589484    -0.734556     0.472999
 C     4.733541    -0.388648    -0.454780
 C    -3.189820    -2.354800    -0.457764
 C     5.773976    -1.214205    -0.017805
 H     6.788893    -0.823295    -0.013763
 C    -2.230775    -0.095874    -1.079974
 H    -1.544505    -0.652161    -1.725217
 H    -2.604434     0.749095    -1.662096
 B     1.447784     3.204808    -0.519501
 B    -0.123378     2.057330     1.571953
 C    -4.611513    -0.381377    -0.276690
 B    -0.016271     3.972800    -1.122323
 C    -4.243812    -3.132422     0.034725
 H    -4.095997    -4.202973     0.157159
 C    -5.473345    -2.570538     0.378974
 B    -1.582449     2.968118     1.068539
 B     1.321481     3.075395     1.244607
 C     6.686824    -3.403145     0.861498
 H     7.031281    -4.043441     0.038597
 H     6.389751    -4.064207     1.682924
 H     7.544675    -2.810490     1.194993
 C     1.756611    -2.748954     0.028977
 H     1.712536    -3.676472     0.606916
 H     1.388736    -2.972460    -0.981238
 H     1.058270    -2.032323     0.473299
 B    -1.019968     4.445607     0.284954
 C    -1.876787    -3.020766    -0.801885
 H    -1.886726    -4.073422    -0.504437
 H    -1.032996    -2.539199    -0.298234
 H    -1.671736    -2.984738    -1.879486
 B     0.734327     4.531159     0.407651
 C    -4.849111     1.103268    -0.427719
 H    -5.857637     1.367692    -0.097932
 H    -4.745673     1.428755    -1.470256
 H    -4.140123     1.696098     0.159549
 B    -0.202881     3.819350     1.755039
 C    -6.594701    -3.416517     0.930983
 H    -6.814828    -3.151389     1.972855
 H    -6.342810    -4.481106     0.904498
 H    -7.520505    -3.273874     0.361153
 C     5.043144     1.021627    -0.903877
 H     6.098520     1.256886    -0.739158
 H     4.446884     1.765798    -0.363738
 H     4.837439     1.162987    -1.972253
 H     0.158117     1.496781    -2.076297
 H    -2.606357     2.754642     1.627134
 H    -0.132591     1.238759     2.429877
 H     1.315729     5.561546     0.504462
 H    -2.388621     2.915603    -1.425024
 H     2.273572     2.950281     1.941670
 H    -1.705171     5.414809     0.278895
 H     0.003177     4.601247    -2.128960
 H     2.483529     3.162815    -1.094444
 H    -0.283876     4.333571     2.821544
 H     2.108381     0.396721     1.163987
 H    -1.806034     0.044080     0.978558
