   70
scf done: -1616.631883
 H    -6.079692    -0.878701    -1.756897
 C    -4.352572    -0.000486     0.808911
 C    -3.485159    -0.000603    -0.289617
 C    -4.098767    -0.000767    -1.551069
 C    -3.273606    -0.000781    -2.655924
 C    -5.770858    -0.001004     0.256195
 C    -5.602485    -0.000547    -1.310674
 H    -3.682395    -0.000891    -3.662527
 H    -6.330118    -0.879901     0.592090
 H    -6.331249     0.876946     0.592626
 H    -6.079066     0.878300    -1.756221
 H    -0.337850    -4.576890    -0.900244
 C    -1.499951    -0.000014     1.115701
 C    -2.350141     0.000221     2.211047
 C    -3.775631    -0.000056     2.062778
 C    -1.846832    -0.000597    -2.502767
 C    -1.268581    -0.000373    -1.252502
 C    -2.111436    -0.000401    -0.141162
 C     0.031255     0.000160     0.955247
 C     0.646880     1.261735     1.592820
 C    -0.153416     2.214884     2.237281
 C     0.354184     3.418910     2.711471
 C     1.697681     3.726743     2.531888
 C     2.511163     2.798702     1.903769
 C     2.021600     1.560570     1.461002
 C     3.004151     0.670274     0.851757
 C     3.004348    -0.669098     0.851717
 C     2.022031    -1.559749     1.460816
 C     2.511827    -2.798033     1.902915
 C     1.698601    -3.726433     2.530809
 C     0.355144    -3.418744     2.711021
 C    -0.152721    -2.214611     2.237419
 C     0.647270    -1.261198     1.592938
 C     0.199368    -0.000026    -0.799826
 C     0.771477     1.352219    -1.271734
 C    -0.040729     2.458033    -0.957755
 C     0.323718     3.771924    -1.201630
 C     0.325292    -3.772001    -1.200318
 C    -0.039861    -2.458174    -0.957249
 C     0.771955    -1.352140    -1.271524
 H    -1.943735     0.000617     3.219867
 H    -4.383304     0.000102     2.963328
 H    -1.216652     2.046329     2.334975
 H    -0.314142     4.125370     3.194094
 H     2.103796     4.674099     2.871733
 H     3.565054     3.016173     1.752224
 H     3.867309     1.168534     0.414398
 H     3.867653    -1.167072     0.414324
 H     3.565698    -3.015329     1.750982
 H     2.104858    -4.673941     2.870064
 H    -0.312937    -4.125446     3.193629
 H    -1.215938    -2.046192     2.335527
 H    -0.992199     2.284778    -0.468441
 H    -0.339824     4.576630    -0.901947
 H    -0.991483    -2.285091    -0.468183
 H     1.855793    -5.057741    -2.025221
 C     1.539419     4.039547    -1.822692
 C     2.339005     2.972684    -2.183022
 C     1.989562     1.629605    -1.926270
 C     2.983696     0.669059    -2.390992
 C     2.983894    -0.668448    -2.390955
 C     1.990148    -1.629248    -1.925951
 C     2.340228    -2.972297    -2.182075
 C     1.541197    -4.039355    -1.821138
 H    -1.225064    -0.000601    -3.394122
 H     1.853496     5.057962    -2.027413
 H     3.283596     3.161742    -2.685612
 H     3.864537     1.136860    -2.826214
 H     3.864864    -1.136022    -2.826162
 H     3.284910    -3.161131    -2.684576
