  212
scf done: -3351.574190
 C     0.833492    -0.023824    -0.004522
 C    -0.833492     0.023824     0.004522
 C     1.455456     0.298497    -1.402254
 C    -1.455456    -0.298497     1.402254
 C    -1.410577     1.418869    -0.401878
 C     1.410577    -1.418869     0.401878
 C     1.438100     1.023621     0.980695
 C    -1.438100    -1.023621    -0.980695
 C     1.076938     1.041443     2.333150
 C    -1.076938    -1.041443    -2.333150
 C    -1.065618    -1.426551     2.147303
 C     1.065618     1.426551    -2.147303
 C     1.016667    -2.604281    -0.234841
 C    -1.016667     2.604281     0.234841
 C     2.441228     1.911879     0.585652
 C    -2.441228    -1.911879    -0.585652
 C    -2.549759     0.418909     1.876741
 C     2.549759    -0.418909    -1.876741
 C     2.478254    -1.512860     1.298587
 C    -2.478254     1.512860    -1.298587
 C     1.583279     1.978137     3.232670
 C    -1.583279    -1.978137    -3.232670
 C    -1.697334    -1.794668     3.329666
 C     1.697334     1.794668    -3.329666
 C     1.608890    -3.837346     0.043960
 C    -1.608890     3.837346    -0.043960
 C     3.014465     2.838703     1.465289
 C    -3.014465    -2.838703    -1.465289
 C    -3.254776     0.048119     3.034033
 C     3.254776    -0.048119    -3.034033
 C     3.118982    -2.723975     1.587424
 C    -3.118982     2.723975    -1.587424
 C     2.545063     2.888788     2.778673
 C    -2.545063    -2.888788    -2.778673
 C    -2.815726    -1.056304     3.751579
 C     2.815726     1.056304    -3.751579
 C     2.664537    -3.883434     0.961210
 C    -2.664537     3.883434    -0.961210
 H     0.383100     0.305294     2.707486
 H    -0.383100    -0.305294    -2.707486
 H    -0.246444    -2.030951     1.796273
 H     0.246444     2.030951    -1.796273
 H     0.234993    -2.578478    -0.978877
 H    -0.234993     2.578478     0.978877
 H     2.812603     1.881173    -0.428972
 H    -2.812603    -1.881173     0.428972
 H    -2.907040     1.279882     1.328247
 H     2.907040    -1.279882    -1.328247
 H     2.855261    -0.616662     1.772919
 H    -2.855261     0.616662    -1.772919
 C     1.101183     1.927217     4.686975
 C    -1.101183    -1.927217    -4.686975
 C    -1.214017    -2.991530     4.154792
 C     1.214017     2.991530    -4.154792
 C     1.060098    -5.090739    -0.648172
 C    -1.060098     5.090739     0.648172
 C     4.194641     3.689341     0.979541
 C    -4.194641    -3.689341    -0.979541
 C    -4.478903     0.876314     3.432999
 C     4.478903    -0.876314    -3.432999
 C     4.318346    -2.711364     2.541333
 C    -4.318346     2.711364    -2.541333
 H     2.948785     3.623777     3.463991
 H    -2.948785    -3.623777    -3.463991
 H    -3.337937    -1.357796     4.653540
 H     3.337937     1.357796    -4.653540
 H     3.140053    -4.831114     1.180110
 H    -3.140053     4.831114    -1.180110
 C     5.114129    -0.380787    -4.735436
 C    -5.114129     0.380787     4.735436
 C    -4.819355     4.123667    -2.859660
 C     4.819355    -4.123667     2.859660
 C     4.526551     4.823574     1.955213
 C    -4.526551    -4.823574    -1.955213
 C     5.529031    -0.785157    -2.311870
 C    -5.529031     0.785157     2.311870
 C    -5.463013     1.923263    -1.880059
 C     5.463013    -1.923263     1.880059
 C     5.417556     2.760703     0.863115
 C    -5.417556    -2.760703    -0.863115
 C     4.066211    -2.345652    -3.624577
 C    -4.066211     2.345652     3.624577
 C    -3.936948     2.028318    -3.865078
 C     3.936948    -2.028318     3.865078
 C     3.917365     4.313964    -0.398230
 C    -3.917365    -4.313964     0.398230
 C     1.055804     2.573875    -5.626833
 C    -1.055804    -2.573875     5.626833
 C    -1.891976     6.338576     0.337087
 C     1.891976    -6.338576    -0.337087
 C     1.551123     3.155081     5.485108
 C    -1.551123    -3.155081    -5.485108
 C    -0.141540     3.510245    -3.661163
 C     0.141540    -3.510245     3.661163
 C     0.380508     5.320658     0.162040
 C    -0.380508    -5.320658    -0.162040
 C    -0.435175     1.854336     4.735168
 C     0.435175    -1.854336    -4.735168
 C     2.244960     4.127331    -4.053523
 C    -2.244960    -4.127331     4.053523
 C    -1.035090     4.889484     2.172863
 C     1.035090    -4.889484    -2.172863
 C     1.677225     0.663598     5.348003
 C    -1.677225    -0.663598    -5.348003
 H     0.667818     3.413242    -6.214519
 H    -0.667818    -3.413242     6.214519
 H    -1.469667     7.200770     0.863362
 H     1.469667    -7.200770    -0.863362
 H     1.147928     3.101311     6.501567
 H    -1.147928    -3.101311    -6.501567
 H     2.007199     2.269467    -6.072940
 H    -2.007199    -2.269467     6.072940
 H    -2.931334     6.220865     0.662814
 H     2.931334    -6.220865    -0.662814
 H     2.641625     3.212422     5.565424
 H    -2.641625    -3.212422    -5.565424
 H     0.355752     1.736194    -5.720213
 H    -0.355752    -1.736194     5.720213
 H    -1.889317     6.569663    -0.733361
 H     1.889317    -6.569663     0.733361
 H     1.189001     4.081927     5.025690
 H    -1.189001    -4.081927    -5.025690
 H     1.937353     4.979005    -4.671339
 H    -1.937353    -4.979005     4.671339
 H    -0.675130     5.801155     2.663844
 H     0.675130    -5.801155    -2.663844
 H     1.316563     0.571854     6.379553
 H    -1.316563    -0.571854    -6.379553
 H     2.337608     4.470458    -3.017088
 H    -2.337608    -4.470458     3.017088
 H    -0.362748     4.073735     2.458127
 H     0.362748    -4.073735    -2.458127
 H     1.375095    -0.236026     4.798233
 H    -1.375095     0.236026    -4.798233
 H     3.233695     3.799982    -4.392611
 H    -3.233695    -3.799982     4.392611
 H    -2.035525     4.664486     2.558835
 H     2.035525    -4.664486    -2.558835
 H     2.772262     0.695738     5.367440
 H    -2.772262    -0.695738    -5.367440
 H    -0.490158     4.317535    -4.314916
 H     0.490158    -4.317535     4.314916
 H     0.824486     6.185045     0.671890
 H    -0.824486    -6.185045    -0.671890
 H    -0.775775     1.866360     5.777593
 H     0.775775    -1.866360    -5.777593
 H    -0.897288     2.715928    -3.663789
 H     0.897288    -2.715928     3.663789
 H     0.405480     5.510570    -0.917689
 H    -0.405480    -5.510570     0.917689
 H    -0.885603     2.708177     4.217182
 H     0.885603    -2.708177    -4.217182
 H    -0.085756     3.907686    -2.641965
 H     0.085756    -3.907686     2.641965
 H     1.002803     4.443932     0.370124
 H    -1.002803    -4.443932    -0.370124
 H    -0.822005     0.940043     4.273120
 H     0.822005    -0.940043    -4.273120
 H     5.977100    -1.006687    -4.984953
 H    -5.977100     1.006687     4.984953
 H    -5.653070     4.066746    -3.567080
 H     5.653070    -4.066746     3.567080
 H     5.335593     5.436812     1.545177
 H    -5.335593    -5.436812    -1.545177
 H     4.407419    -0.433795    -5.570785
 H    -4.407419     0.433795     5.570785
 H    -4.030941     4.733174    -3.315009
 H     4.030941    -4.733174     3.315009
 H     3.658528     5.472043     2.119572
 H    -3.658528    -5.472043    -2.119572
 H     5.466173     0.652407    -4.645060
 H    -5.466173    -0.652407     4.645060
 H    -5.179776     4.638363    -1.962864
 H     5.179776    -4.638363     1.962864
 H     4.861950     4.442533     2.925136
 H    -4.861950    -4.442533    -2.925136
 H     6.411412    -1.382883    -2.567868
 H    -6.411412     1.382883     2.567868
 H    -6.334866     1.887818    -2.543537
 H     6.334866    -1.887818     2.543537
 H     6.297399     3.324788     0.532295
 H    -6.297399    -3.324788    -0.532295
 H     5.847760     0.252593    -2.165380
 H    -5.847760    -0.252593     2.165380
 H    -5.765631     2.398269    -0.940515
 H     5.765631    -2.398269     0.940515
 H     5.646085     2.298953     1.829755
 H    -5.646085    -2.298953    -1.829755
 H     5.132922    -1.154795    -1.360271
 H    -5.132922     1.154795     1.360271
 H    -5.162026     0.893830    -1.657794
 H     5.162026    -0.893830     1.657794
 H     5.231369     1.958926     0.140117
 H    -5.231369    -1.958926    -0.140117
 H     4.940743    -2.951818    -3.887503
 H    -4.940743     2.951818     3.887503
 H    -4.803918     1.998005    -4.535033
 H     4.803918    -1.998005     4.535033
 H     4.798267     4.874778    -0.730496
 H    -4.798267    -4.874778     0.730496
 H     3.627011    -2.763655    -2.712637
 H    -3.627011     2.763655     2.712637
 H    -3.598683     0.999318    -3.709587
 H     3.598683    -0.999318     3.709587
 H     3.701379     3.559849    -1.161597
 H    -3.701379    -3.559849     1.161597
 H     3.328278    -2.438211    -4.428791
 H    -3.328278     2.438211     4.428791
 H    -3.134374     2.576107    -4.371163
 H     3.134374    -2.576107     4.371163
 H     3.071512     5.007649    -0.355441
 H    -3.071512    -5.007649     0.355441
