   66
scf done: -2158.403162
Cl     2.826922     2.594050     0.586543
Cl     0.763272    -3.210348    -0.667061
 C     0.448035    -0.526045    -0.364653
 C    -0.999750    -0.257141     0.024288
 C    -0.520124     1.371284     0.067080
 C     0.892170     0.780317    -0.065959
 C     2.226798     1.054018     0.029482
 C     3.178185     0.028746    -0.293683
 C     4.576080     0.271446    -0.293926
 C     5.470716    -0.721672    -0.602215
 C     5.013382    -2.017051    -0.920643
 C     3.669519    -2.290537    -0.923793
 C     2.715788    -1.286694    -0.618153
 C     1.309914    -1.558114    -0.586937
 C    -1.237374    -1.014732     1.368617
 C    -0.160142    -1.432484     2.167718
 C    -0.352200    -2.146649     3.344654
 C    -1.634950    -2.479996     3.767164
 C    -2.715357    -2.095441     2.983668
 C    -2.516563    -1.388118     1.799835
 C    -2.103007    -0.639343    -0.953962
 C    -1.884171    -1.567795    -1.973851
 C    -2.896939    -1.915219    -2.863156
 C    -4.158877    -1.339301    -2.753746
 C    -4.396053    -0.416864    -1.738916
 C    -3.379895    -0.077686    -0.849765
 C    -0.869756     2.181239     1.393161
 C    -2.376183     2.116307     1.708303
 C    -0.487956     3.680968     1.376917
 C    -0.137541     1.627802     2.639344
 C    -0.781857     2.176740    -1.319503
 C    -0.735399     1.309275    -2.605046
 C    -2.122154     2.933900    -1.407314
 C     0.362937     3.195509    -1.553524
 H     4.933486     1.264829    -0.051967
 H     6.534487    -0.507494    -0.601746
 H     5.725035    -2.798847    -1.165007
 H     3.316417    -3.285380    -1.167789
 H     0.856795    -1.175541     1.894085
 H     0.512307    -2.442166     3.930815
 H    -1.787355    -3.039410     4.684642
 H    -3.726811    -2.356463     3.279302
 H    -3.388140    -1.145062     1.206522
 H    -0.899708    -1.995932    -2.109494
 H    -2.690522    -2.631756    -3.652111
 H    -4.947341    -1.603845    -3.451060
 H    -5.372877     0.046052    -1.637072
 H    -3.584446     0.646725    -0.068854
 H    -2.715091     1.087914     1.845394
 H    -2.994332     2.597855     0.947957
 H    -2.556383     2.639010     2.654513
 H    -0.935273     4.255837     0.568648
 H    -0.847598     4.116805     2.314879
 H     0.593936     3.824409     1.351254
 H    -0.159040     2.392407     3.422943
 H     0.913389     1.398769     2.438534
 H    -0.615516     0.740205     3.048623
 H     0.043241     0.541553    -2.581428
 H    -1.688623     0.835679    -2.834563
 H    -0.501549     1.976973    -3.441195
 H    -2.978981     2.266736    -1.311653
 H    -2.181871     3.385256    -2.404238
 H    -2.228526     3.743004    -0.685209
 H     0.067606     3.854735    -2.376855
 H     0.609370     3.822426    -0.702647
 H     1.276952     2.681750    -1.865334
