   66
scf done: -1140.327608
 N     1.294534    -0.317126     0.824121
 C     2.591068    -0.748930     0.360724
 C     0.777110     0.941078     0.473798
 C     2.686885    -1.577767    -0.764324
 C     3.956294    -1.980465    -1.192787
 H     4.027882    -2.617712    -2.072048
 C     3.746987    -0.400710     1.089037
 C     4.985069    -0.842180     0.635236
 H     5.876029    -0.573717     1.198970
 C     5.114963    -1.616385    -0.519857
 C     1.482902    -2.096337    -1.507340
 H     0.561104    -1.889258    -0.964234
 H     1.575105    -3.176890    -1.654757
 H     1.406946    -1.639970    -2.501150
 B     0.722886     1.353436    -1.178117
 H     1.188164     0.592523    -1.953720
 B     0.761193     2.274583     1.504695
 H     1.265100     2.122126     2.565816
 C     6.474820    -2.043884    -1.008248
 H     7.097927    -2.400377    -0.182624
 H     7.001103    -1.205240    -1.476886
 H     6.397167    -2.844256    -1.748387
 C     3.673345     0.420273     2.351149
 H     3.424466     1.463596     2.137281
 H     4.635146     0.402589     2.868726
 H     2.916685     0.044785     3.049012
 B     1.691536     2.270464     0.003437
 H     2.865842     2.121911    -0.021856
 B     0.754360     3.124649    -1.220605
 H     1.298754     3.692732    -2.107148
 B     0.749329     3.698913     0.462584
 H     1.298429     4.694100     0.800153
 H     1.142671    -0.504257     1.810455
 N    -1.294574    -0.317067    -0.824228
 C    -2.591077    -0.748926    -0.360798
 C    -0.777151     0.941112    -0.473822
 C    -2.686806    -1.577875     0.764176
 C    -3.956177    -1.980643     1.192678
 H    -4.027696    -2.617985     2.071874
 C    -3.747048    -0.400641    -1.088994
 C    -4.985095    -0.842179    -0.635155
 H    -5.876096    -0.573667    -1.198799
 C    -5.114899    -1.616508     0.519863
 C    -1.482758    -2.096483     1.507062
 H    -0.561006    -1.889370     0.963891
 H    -1.574946    -3.177044     1.654427
 H    -1.406715    -1.640170     2.500890
 B    -0.722928     1.353353     1.178119
 H    -1.188207     0.592385     1.953668
 B    -0.761237     2.274688    -1.504628
 H    -1.265144     2.122304    -2.565759
 C    -6.474713    -2.044047     1.008338
 H    -7.098113    -2.399882     0.182655
 H    -7.000696    -1.205598     1.477661
 H    -6.397026    -2.844906     1.747948
 C    -3.673506     0.420499    -2.351009
 H    -3.424613     1.463796    -2.137029
 H    -4.635347     0.402877    -2.868513
 H    -2.916900     0.045100    -3.048977
 B    -1.691580     2.270463    -0.003372
 H    -2.865886     2.121906     0.021910
 B    -0.754404     3.124563     1.220731
 H    -1.298799     3.692583     2.107314
 B    -0.749374     3.698946    -0.462417
 H    -1.298475     4.694156    -0.799917
 H    -1.142752    -0.504114    -1.810585
