   62
scf done: -1980.646642
 I     3.501262     1.531222    -0.323137
 I    -3.519814     1.576204     0.201152
 C     0.836099    -1.023709    -0.152857
 C    -0.863118    -1.015468     0.190661
 C    -0.713188     0.495125     0.073366
 C    -1.419534     1.650443     0.088186
 C    -0.710166     2.904845     0.018724
 C    -1.382909     4.153490     0.047904
 C    -0.662688     5.318862     0.005738
 C     0.720440     5.305649    -0.075063
 C     1.399942     4.140200    -0.130810
 C     0.720070     2.888999    -0.097808
 C     1.409213     1.637943    -0.170521
 C     0.686046     0.485967    -0.114221
 C     1.100046    -1.579304    -1.530446
 C     1.555423    -0.790136    -2.573683
 C     1.721407    -1.318490    -3.846906
 C     1.465814    -2.648993    -4.094934
 C     1.020131    -3.450269    -3.070707
 C     0.824684    -2.928675    -1.800286
 C     1.744142    -1.594390     0.930721
 C     1.838832    -0.907215     2.161185
 C     2.621242    -1.374441     3.205423
 C     3.341182    -2.548298     3.024968
 C     3.280530    -3.238607     1.820501
 C     2.495780    -2.742878     0.797802
 C    -1.757008    -1.642267    -0.861379
 C    -1.794928    -1.076679    -2.132818
 C    -2.520013    -1.683486    -3.159589
 C    -3.238582    -2.828778    -2.939504
 C    -3.258442    -3.350045    -1.672572
 C    -2.533521    -2.770545    -0.632207
 C    -1.119110    -1.507560     1.614636
 C    -0.834277    -2.828339     1.955221
 C    -1.023956    -3.260049     3.265415
 C    -1.492009    -2.415851     4.237661
 C    -1.762664    -1.120531     3.921576
 C    -1.581196    -0.659071     2.618182
 H    -2.348958     4.160947     0.070894
 H    -1.105897     6.173583     0.075738
 H     1.182522     6.141379    -0.135626
 H     2.369791     4.132813    -0.176140
 H     1.760272     0.151529    -2.401711
 H     2.055070    -0.754770    -4.581255
 H     1.597928    -3.021618    -4.963014
 H     0.812107    -4.394049    -3.242500
 H     0.524444    -3.500736    -1.083842
 H     1.341566    -0.087786     2.276152
 H     2.647414    -0.902779     4.042394
 H     3.867516    -2.902880     3.750737
 H     3.798484    -4.039329     1.723109
 H     2.478995    -3.212113    -0.048104
 H    -1.294522    -0.236160    -2.301555
 H    -2.496639    -1.291384    -4.055380
 H    -3.769897    -3.259683    -3.625977
 H    -3.748364    -4.164829    -1.523484
 H    -2.588766    -3.133853     0.260320
 H    -0.536984    -3.442237     1.273696
 H    -0.754165    -4.177335     3.464195
 H    -1.604353    -2.746422     5.128252
 H    -2.100082    -0.522104     4.608188
 H    -1.786485     0.271560     2.400750
