   54
scf done: -1307.064214
 C     0.000038     0.642952     0.844050
 C    -0.000127     0.642699    -0.843937
 C     0.000320    -1.913770     0.674450
 C     0.000172    -1.914064    -0.674238
 C    -1.228266    -0.024799     1.437777
 C    -2.314764     0.638882     1.987675
 H    -2.326572     1.724880     2.020385
 C    -3.394018    -0.096354     2.486506
 H    -4.242330     0.423057     2.921068
 C    -3.389753    -1.484747     2.422687
 H    -4.234199    -2.048043     2.807201
 C    -2.304795    -2.161207     1.857568
 H    -2.302167    -3.244616     1.787337
 C    -1.230628    -1.434301     1.373124
 C     1.228607    -0.024530     1.437530
 C     2.314938     0.639407     1.987433
 H     2.326494     1.725411     2.020125
 C     3.394375    -0.095573     2.486255
 H     4.242542     0.424040     2.920858
 C     3.390444    -1.483964     2.422422
 H     4.235020    -2.047062     2.806939
 C     2.305647    -2.160682     1.857295
 H     2.303295    -3.244091     1.787023
 C     1.231302    -1.434036     1.372865
 C    -1.228559    -0.025115    -1.437332
 C    -2.315125     0.638583    -1.987113
 H    -2.326963     1.724580    -2.019752
 C    -3.394382    -0.096631    -2.485943
 H    -4.242772     0.422789    -2.920346
 C    -3.390056    -1.485039    -2.422308
 H    -4.234448    -2.048316    -2.806962
 C    -2.305054    -2.161518    -1.857308
 H    -2.302401    -3.244933    -1.787150
 C    -1.230951    -1.434625    -1.372724
 C     1.228337    -0.024863    -1.437560
 C     2.314675     0.639094    -1.987476
 H     2.326214     1.725095    -2.020163
 C     3.394083    -0.095856    -2.486374
 H     4.242294     0.423759    -2.920880
 C     3.390117    -1.484261    -2.422675
 H     4.234637    -2.047349    -2.807335
 C     2.305352    -2.160996    -1.857532
 H     2.302976    -3.244414    -1.787403
 C     1.231085    -1.434377    -1.372896
 C    -0.000109     2.147278     0.693547
 C    -0.000252     3.319850     1.434196
 H    -0.000128     3.329320     2.520384
 C    -0.000608     4.511063     0.698978
 H    -0.000733     5.461619     1.223617
 C    -0.000820     4.510839    -0.700074
 H    -0.001097     5.461227    -1.225012
 C    -0.000704     3.319363    -1.434881
 H    -0.000883     3.328379    -2.521069
 C    -0.000316     2.147076    -0.693799
