   74
scf done: -1244.216424
 C    -0.617381    -0.029448    -0.125670
 C    -0.960657    -1.538279    -0.419802
 C     1.029020     0.189435     0.174668
 C    -2.391617    -1.731748    -0.970578
 C     1.198894     1.327524     1.217654
 C    -1.689030     0.379345     1.001704
 C     1.824021     0.588895    -1.126906
 C    -1.738972     1.884741     1.357264
 C    -2.446162     0.585714    -1.864012
 C     2.741479    -1.734951    -1.543271
 C    -1.017311     0.871124    -1.353832
 C    -3.149254     0.125111     0.447885
 C    -1.551778    -0.514581     2.248031
 C     3.267808     1.053561    -0.792346
 C     3.345980    -0.570265     1.070302
 C    -0.952837     2.379022    -1.029699
 C    -3.404107    -1.342957     0.115714
 C     1.889553    -1.024573     0.730465
 C    -3.455685     0.987776    -0.780982
 C     4.069337    -0.120635    -0.212182
 C     2.638356     1.750127     1.507006
 C     1.933447    -0.571369    -2.135829
 C     4.160145    -1.256177    -1.229630
 C     2.087272    -2.213818    -0.239733
 C    -1.833333    -1.990342     1.913845
 C     3.387990     0.559647     2.093233
 C    -1.942585     2.742663     0.091245
 C     3.279096     2.216190     0.199080
 C    -2.608842    -0.888194    -2.223387
 C    -3.352464     2.474169    -0.443409
 C    -0.866844    -2.454842     0.822349
 C    -3.256522    -2.174563     1.387285
 H    -0.355110     0.658139    -2.196929
 H     2.776166    -2.562668    -2.261730
 H     2.616764     2.576658     2.228126
 H     2.913181     0.245131     3.032187
 H    -1.880286    -1.169649    -2.996476
 H     0.132673    -2.522205     1.237444
 H    -4.473083     0.755004    -1.127141
 H    -2.606738     1.203887    -2.758999
 H     0.945547    -0.919425    -2.453784
 H    -1.238934     2.932296    -1.935188
 H     4.660580    -0.904682    -2.141751
 H     4.757257    -2.083771    -0.824873
 H    -3.828407     0.415904     1.264808
 H    -2.613306     2.029904     2.008216
 H    -4.105641     2.741129     0.309196
 H     4.310410     2.552680     0.368031
 H     0.058430     2.709632    -0.790607
 H     1.349039     1.440194    -1.618603
 H     2.719665     3.070591    -0.206450
 H    -3.609656    -1.070269    -2.637002
 H    -0.291329    -1.903221    -1.201545
 H     2.438124    -0.203294    -3.039787
 H     1.459709    -1.364660     1.679269
 H     3.731475     1.371832    -1.737464
 H    -3.443243    -3.236963     1.183105
 H    -3.996310    -1.847213     2.129866
 H    -0.549436    -0.426988     2.684805
 H    -2.508183    -2.796508    -1.218222
 H     4.429740     0.819620     2.323095
 H     0.737995     1.016925     2.160757
 H    -1.686942    -2.597896     2.815146
 H    -3.548121     3.082814    -1.336087
 H     0.674105     2.218828     0.886596
 H     2.754844    -2.936881     0.249292
 H     1.174498    -2.759209    -0.461386
 H    -0.891080     2.221727     1.946779
 H    -1.834938     3.803861     0.346276
 H    -4.423769    -1.445880    -0.282946
 H     3.859896    -1.450705     1.481023
 H    -1.135785    -3.473870     0.509595
 H    -2.260880    -0.166937     3.013559
 H     5.078979     0.226326     0.051031
