   23
scf done:  -739.559153
 C     7.878825     5.691252     9.886580
 C     8.067090     6.973057    10.372009
 C     7.045636     7.908341    10.229220
 C     5.856340     7.536140     9.601636
 C     5.720213     6.244178     9.135373
 N     6.722952     5.353229     9.284152
 C     6.529932     3.982916     8.768929
 C     7.560200     2.849129     8.852197
 C     5.427941     3.006065     9.217994
 C     6.248436     3.610940     7.301739
 C     6.293904     2.310378     8.139938
 I     6.029112     0.353737     7.409008
 H     8.625231     4.909363     9.959832
 H     9.004353     7.224615    10.853402
 H     7.172931     8.918774    10.602838
 H     5.039820     8.236256     9.472473
 H     4.829430     5.878018     8.637718
 H     7.761595     2.431210     9.840785
 H     8.451978     2.940090     8.228508
 H     4.403079     3.242486     8.924590
 H     5.505915     2.609937    10.231572
 H     7.064102     3.758661     6.592359
 H     5.270785     3.882127     6.898050
