   54
scf done:  -983.131811
 B     1.216486    -1.937250    -0.000000
 B     0.805001    -2.901384     1.441243
 B    -0.949014    -3.094270     1.438908
 B    -1.545020    -2.244601     0.000000
 B     1.449525    -3.688311    -0.000000
 B     0.081421    -4.416839     0.881202
 B    -1.407215    -4.009654     0.000000
 C    -0.212962    -1.677683     0.894662
 N    -0.383389    -0.424666     1.495634
 C     0.576753    -0.014346     2.520475
 H     1.576505    -0.056036     2.073583
 H     0.580471    -0.700557     3.379617
 C     0.277496     1.387986     2.997092
 C     0.451591     1.722748     4.340222
 H     0.773567     0.960374     5.045146
 C     0.215019     3.021795     4.782012
 H     0.354301     3.268934     5.829735
 C    -0.209174     3.997634     3.883990
 H    -0.398940     5.009377     4.228062
 C    -0.393989     3.667703     2.543158
 H    -0.726969     4.423235     1.837980
 C    -0.150943     2.370494     2.102964
 H    -0.295513     2.099888     1.062200
 H     2.026318    -1.074562    -0.000000
 H    -2.379671    -4.687263     0.000000
 H     1.410062    -2.700215     2.438365
 H    -2.510690    -1.556553     0.000000
 H     2.541643    -4.148585    -0.000000
 H    -1.578829    -2.991322     2.438192
 H     0.195570    -5.406097     1.524251
 H    -1.339526    -0.297416     1.814553
 B     0.805001    -2.901384    -1.441243
 B    -0.949014    -3.094270    -1.438908
 B     0.081421    -4.416839    -0.881202
 C    -0.212962    -1.677683    -0.894662
 N    -0.383389    -0.424666    -1.495634
 C     0.576753    -0.014346    -2.520475
 H     1.576505    -0.056036    -2.073583
 H     0.580471    -0.700557    -3.379617
 C     0.277496     1.387986    -2.997092
 C     0.451591     1.722748    -4.340222
 H     0.773567     0.960374    -5.045146
 C     0.215019     3.021795    -4.782012
 H     0.354301     3.268934    -5.829735
 C    -0.209174     3.997634    -3.883990
 H    -0.398940     5.009377    -4.228062
 C    -0.393989     3.667703    -2.543158
 H    -0.726969     4.423235    -1.837980
 C    -0.150943     2.370494    -2.102964
 H    -0.295513     2.099888    -1.062200
 H     1.410062    -2.700215    -2.438365
 H    -1.578829    -2.991322    -2.438192
 H     0.195570    -5.406097    -1.524251
 H    -1.339526    -0.297416    -1.814553
