   72
scf done: -1218.910648
 N     1.559060     0.529403     0.291742
 N    -1.459085     0.451163     0.235000
 C     4.153039    -3.054789     0.355399
 H     3.950462    -4.077171     0.667821
 C     3.093923    -2.252616    -0.065472
 C    -3.320331    -0.952479    -0.516681
 C     3.349509    -0.932392    -0.466790
 C     0.923186     1.764464     0.227856
 C     2.203945    -0.046681    -0.896524
 H     2.562339     0.746881    -1.560819
 H     1.459789    -0.624845    -1.455438
 C     5.461277    -2.574090     0.395680
 B    -1.438787     3.044073    -0.669036
 C    -0.887895     1.719226     0.211110
 B     0.029511     2.156636    -1.160083
 C    -5.619344    -1.144731     0.198647
 H    -6.572140    -0.672440     0.428694
 C     4.653594    -0.417226    -0.399739
 C    -3.170080    -2.340164    -0.373655
 C     5.689107    -1.249802     0.025176
 H     6.699710    -0.850102     0.075709
 C    -2.152957    -0.091592    -0.944962
 H    -1.442298    -0.671886    -1.541754
 H    -2.508756     0.728887    -1.577041
 B     1.442024     3.112497    -0.639196
 B    -0.011011     2.152462     1.607078
 C    -4.554866    -0.348382    -0.219995
 B    -0.011540     3.931335    -1.204113
 C    -4.259055    -3.104986     0.045429
 H    -4.136025    -4.180154     0.157301
 C    -5.493712    -2.527049     0.331195
 B    -1.462342     3.039502     1.093892
 B     1.418901     3.097543     1.124375
 C     6.599900    -3.466100     0.819482
 H     7.009170    -4.009644    -0.039401
 H     6.271029    -4.208502     1.551857
 H     7.414971    -2.886553     1.261200
 C     1.684523    -2.789978    -0.065412
 H     1.627383    -3.741398     0.469187
 H     1.317257    -2.958862    -1.085145
 H     1.002650    -2.080046     0.414611
 B    -0.921296     4.478747     0.224893
 C    -1.849922    -3.014326    -0.654478
 H    -1.871615    -4.058493    -0.333198
 H    -1.034074    -2.513127    -0.127063
 H    -1.607041    -3.000204    -1.723440
 B     0.839321     4.517657     0.246002
 C    -4.745546     1.142755    -0.351287
 H    -5.727951     1.440583     0.022100
 H    -4.674357     1.465833    -1.396337
 H    -3.988186     1.702782     0.207698
 B    -0.046363     3.917295     1.670666
 C    -6.668379    -3.371524     0.753802
 H    -7.297385    -2.842874     1.475458
 H    -6.339724    -4.309844     1.208375
 H    -7.297075    -3.623167    -0.107574
 C     4.946365     1.020050    -0.758062
 H     5.985319     1.269498    -0.530915
 H     4.304359     1.712728    -0.201632
 H     4.782145     1.215239    -1.823805
 H     0.050867     1.400086    -2.069747
 H    -2.466371     2.857637     1.698745
 H    -0.000421     1.365530     2.491854
 H     1.459548     5.528045     0.257232
 H    -2.422114     2.901006    -1.313660
 H     2.416657     2.954166     1.750026
 H    -1.586511     5.460141     0.215819
 H    -0.016628     4.508475    -2.239469
 H     2.449468     3.000397    -1.253934
 H    -0.068335     4.482588     2.712415
 H     2.105333     0.419070     1.138434
 H    -1.921056     0.241497     1.111936
