   55
scf done: -1021.212590
 B    -2.243366    -0.096407    -1.439950
 H    -1.453122    -0.211436    -2.311741
 B    -3.042948     1.402563    -1.020850
 H    -2.852470     2.351702    -1.701565
 B    -2.998454     1.578577     0.752032
 H    -2.819256     2.643878     1.235466
 B    -2.199512     0.181943     1.464107
 H    -1.384239     0.240525     2.315576
 B    -3.076359    -1.278404     1.058016
 H    -2.925504    -2.238485     1.734543
 B    -3.093881    -1.450673    -0.717233
 H    -2.965217    -2.522028    -1.204660
 B    -3.979548    -0.060494    -1.402301
 H    -4.590957    -0.160422    -2.412672
 B    -3.931588     0.233397     1.463459
 H    -4.515261     0.363119     2.486778
 B    -4.502085    -0.790294     0.129646
 H    -5.510618    -1.407792     0.208552
 B    -4.463100     0.983125    -0.055938
 H    -5.442172     1.649528    -0.100174
 N    -0.353237     1.186563    -0.190648
 N    -0.405247    -1.179045     0.163025
 C    -1.728390     0.829017    -0.086227
 C    -1.770343    -0.765744     0.098159
 C     0.422125    -0.051621    -0.337495
 H     1.351480     0.019824     0.234018
 H     0.677994    -0.220639    -1.394915
 C    -0.100745    -2.448476    -0.489262
 H    -0.265176    -2.387596    -1.579425
 H    -0.797539    -3.195387    -0.093049
 C     1.325026    -2.863523    -0.205936
 C     1.824410    -2.812995     1.098548
 H     1.181120    -2.448592     1.894991
 C     3.128547    -3.213541     1.366762
 H     3.508387    -3.170775     2.382808
 C     3.947233    -3.670765     0.334494
 H     4.965112    -3.983277     0.544916
 C     3.456515    -3.719863    -0.966346
 H     4.090103    -4.068637    -1.775706
 C     2.151024    -3.312454    -1.234656
 H     1.770584    -3.343448    -2.252547
 C     0.166870     2.150437     0.779682
 H     0.259959     1.714542     1.786226
 H    -0.561315     2.965172     0.842242
 C     1.504341     2.694243     0.329849
 C     2.541542     2.857925     1.246954
 H     2.391933     2.565084     2.283224
 C     3.764221     3.391580     0.844629
 H     4.563994     3.513798     1.568256
 C     3.960520     3.757196    -0.483406
 H     4.913698     4.168384    -0.800287
 C     2.929983     3.587660    -1.407102
 H     3.079362     3.868308    -2.445073
 C     1.708688     3.059020    -1.003464
 H     0.903303     2.916791    -1.718448
