   66
scf done: -1538.871491
 C    -0.000813     4.260155     1.574394
 C     0.000055     4.733509     0.267542
 C     0.001538     4.142087    -2.206464
 H    -0.001385     4.971017     2.402296
 H     0.000243     5.806759     0.068771
 H     0.001792     5.190086    -2.511337
 C    -0.000333     1.939670     0.837484
 C    -0.001048     2.868403     1.872277
 C     0.000793     3.815736    -0.819817
 C     0.001970     3.132529    -3.162574
 C     0.001654     1.755044    -2.803712
 C     0.000945     1.411969    -1.463733
 C     0.000550     2.426558    -0.487289
 C    -0.000467     0.405226     0.895822
 C    -1.276207    -0.117240     1.582836
 C    -2.257956     0.774575     2.060823
 C    -3.493546     0.345801     2.553435
 C    -3.808023    -1.017524     2.557194
 C    -2.855528    -1.922367     2.097631
 C    -1.580595    -1.509040     1.642586
 C    -0.677548    -2.572218     1.240649
 C     0.676427    -2.572202     1.240783
 C     1.579362    -1.509124     1.643097
 C     1.274782    -0.117316     1.583985
 C     0.000407     0.006326    -0.848046
 C    -1.351876    -0.622065    -1.229972
 C    -2.460606     0.237892    -1.054648
 C    -3.784602    -0.162246    -1.230351
 C    -4.058841    -1.473993    -1.631970
 C    -2.989725    -2.332434    -1.856779
 C    -1.633299    -1.946594    -1.670517
 C    -0.676054    -2.995253    -1.968396
 C     0.676790    -2.995070    -1.969182
 C     1.634044    -1.946610    -1.670605
 C     1.352637    -0.622399    -1.229073
 H    -0.002028     2.542261     2.912549
 H     0.002482     3.399414    -4.220696
 H     0.001903     0.984287    -3.574791
 H    -2.083492     1.843638     2.000481
 H    -4.219175     1.084526     2.897378
 H    -4.779376    -1.368739     2.907982
 H    -3.078860    -2.990686     2.094322
 H    -1.166106    -3.513745     0.981438
 H     1.165026    -3.513762     0.981641
 H    -2.282514     1.260886    -0.737800
 H    -4.590570     0.547535    -1.042056
 H    -5.084338    -1.817828    -1.773302
 H    -3.184758    -3.353260    -2.190628
 H    -1.141737    -3.941488    -2.256641
 H     1.142385    -3.941129    -2.258152
 H     2.283584     1.259865    -0.734565
 C     2.854246    -1.922497     2.098219
 C     3.806396    -1.017719     2.558664
 C     3.491438     0.345485     2.556119
 C     2.255925     0.774348     2.063328
 C     2.990507    -2.332545    -1.856594
 C     4.059682    -1.474668    -1.630183
 C     3.785547    -0.163256    -1.227328
 C     2.461577     0.237093    -1.052154
 H     3.077845    -2.990756     2.094194
 H     4.777854    -1.368888     2.909202
 H     4.216663     1.084124     2.901103
 H     2.081116     1.843419     2.004045
 H     3.185445    -3.353039    -2.191550
 H     5.085165    -1.818673    -1.771198
 H     4.591599     0.546018    -1.037580
