   68
scf done: -1615.011545
 C     1.591929     0.000096     1.195044
 C     2.519704     0.000180     2.245989
 C     3.932906     0.000210     2.041887
 C     4.433074     0.000159     0.742353
 C     3.484118     0.000080    -0.315243
 C     4.141345     0.000027    -1.575262
 C     3.335454    -0.000051    -2.710291
 C     1.915071    -0.000071    -2.558766
 C     1.278349    -0.000022    -1.312802
 C     2.097488     0.000046    -0.141180
 C     5.756345     0.000166     0.093311
 C     5.583972     0.000071    -1.273685
 C     0.102075     0.000021     1.381566
 C    -0.471783     1.313247     1.669439
 C     0.412315     2.406033     1.906457
 C    -0.026879     3.711598     2.113303
 C    -1.393336     4.010330     2.048432
 C    -2.288363     2.970040     1.807935
 C    -1.875503     1.630237     1.632889
 C    -2.938535     0.677924     1.390626
 C    -2.938445    -0.678259     1.390579
 C    -1.875296    -1.630441     1.632846
 C    -2.287995    -2.970302     1.807860
 C    -1.392843    -4.010472     2.048403
 C    -0.026426    -3.711562     2.113360
 C     0.412609    -2.405941     1.906538
 C    -0.471621    -1.313276     1.669457
 C    -0.224873    -0.000003    -1.204159
 C    -0.817785     1.324416    -1.391065
 C     0.047600     2.446228    -1.223662
 C    -0.375919     3.768018    -1.329397
 C    -1.715007     4.055238    -1.618028
 C    -2.594088     2.990005    -1.788901
 C    -2.195482     1.635415    -1.677838
 C    -3.258439     0.679201    -1.878841
 C    -3.258430    -0.679198    -1.878905
 C    -2.195473    -1.635416    -1.677918
 C    -2.594070    -2.990006    -1.789046
 C    -1.715010    -4.055242    -1.618084
 C    -0.375963    -3.768030    -1.329257
 C     0.047548    -2.446239    -1.223488
 C    -0.817804    -1.324429    -1.391027
 H     2.138992     0.000216     3.268366
 H     4.592769     0.000270     2.911930
 H     3.760052    -0.000101    -3.716314
 H     1.292762    -0.000119    -3.454418
 H     6.710350     0.000232     0.616620
 H     1.481154     2.218368     1.928605
 H     0.705509     4.499593     2.295743
 H    -1.754203     5.030799     2.180294
 H    -3.356322     3.185143     1.742915
 H    -3.909417     1.142867     1.202539
 H    -3.909260    -1.143320     1.202448
 H    -3.355923    -3.185543     1.742790
 H    -1.753577    -5.030992     2.180238
 H     0.706049    -4.499465     2.295847
 H     1.481421    -2.218123     1.928747
 H     1.093015     2.267815    -0.994039
 H     0.342878     4.571978    -1.168255
 H    -2.065662     5.084104    -1.704143
 H    -3.642547     3.192485    -2.015926
 H    -4.231719     1.140817    -2.066618
 H    -4.231703    -1.140809    -2.066729
 H    -3.642504    -3.192481    -2.016194
 H    -2.065658    -5.084107    -1.704243
 H     0.342807    -4.571992    -1.168006
 H     1.092930    -2.267825    -0.993709
 H     6.378608     0.000048    -2.017061
