  212
scf done: -3351.052962
 C     0.834204    -0.004330     0.007844
 C    -0.834204     0.004330    -0.007844
 C     1.455278     0.327089    -1.390649
 C    -1.455278    -0.327089     1.390649
 C    -1.425484     1.393106    -0.422407
 C     1.425484    -1.393106     0.422407
 C     1.415429     1.049690     1.005301
 C    -1.415429    -1.049690    -1.005301
 C     1.023974     1.088949     2.356689
 C    -1.023974    -1.088949    -2.356689
 C    -1.045566    -1.444443     2.149052
 C     1.045566     1.444443    -2.149052
 C     1.037973    -2.588741    -0.210151
 C    -1.037973     2.588741     0.210151
 C     2.464268     1.899490     0.619520
 C    -2.464268    -1.899490    -0.619520
 C    -2.567242     0.387462     1.853993
 C     2.567242    -0.387462    -1.853993
 C     2.504015    -1.466180     1.319274
 C    -2.504015     1.466180    -1.319274
 C     1.580593     1.990641     3.276198
 C    -1.580593    -1.990641    -3.276198
 C    -1.677242    -1.808868     3.343834
 C     1.677242     1.808868    -3.343834
 C     1.646567    -3.821488     0.073818
 C    -1.646567     3.821488    -0.073818
 C     3.083838     2.789520     1.515039
 C    -3.083838    -2.789520    -1.515039
 C    -3.263688     0.029448     3.025478
 C     3.263688    -0.029448    -3.025478
 C     3.171938    -2.671074     1.602695
 C    -3.171938     2.671074    -1.602695
 C     2.609227     2.845120     2.835234
 C    -2.609227    -2.845120    -2.835234
 C    -2.802313    -1.066803     3.762366
 C     2.802313     1.066803    -3.762366
 C     2.720049    -3.845990     0.982684
 C    -2.720049     3.845990    -0.982684
 H     0.270405     0.398323     2.704968
 H    -0.270405    -0.398323    -2.704968
 H    -0.212830    -2.032775     1.797292
 H     0.212830     2.032775    -1.797292
 H     0.248242    -2.564635    -0.946700
 H    -0.248242     2.564635     0.946700
 H     2.834958     1.852782    -0.396899
 H    -2.834958    -1.852782     0.396899
 H    -2.932101     1.232004     1.282448
 H     2.932101    -1.232004    -1.282448
 H     2.861738    -0.557425     1.789066
 H    -2.861738     0.557425    -1.789066
 C     1.102728     1.951406     4.741531
 C    -1.102728    -1.951406    -4.741531
 C    -1.196274    -3.015278     4.170862
 C     1.196274     3.015278    -4.170862
 C     1.109869    -5.090313    -0.615838
 C    -1.109869     5.090313     0.615838
 C     4.314877     3.581862     1.035831
 C    -4.314877    -3.581862    -1.035831
 C    -4.512253     0.840553     3.413540
 C     4.512253    -0.840553    -3.413540
 C     4.398607    -2.634422     2.532463
 C    -4.398607     2.634422    -2.532463
 H     3.060898     3.541611     3.534879
 H    -3.060898    -3.541611    -3.534879
 H    -3.318383    -1.360454     4.673233
 H     3.318383     1.360454    -4.673233
 H     3.211749    -4.788357     1.201377
 H    -3.211749     4.788357    -1.201377
 C     5.112077    -0.387230    -4.758445
 C    -5.112077     0.387230     4.758445
 C    -4.963210     4.039946    -2.817329
 C     4.963210    -4.039946     2.817329
 C     4.763351     4.644574     2.058774
 C    -4.763351    -4.644574    -2.058774
 C     5.582281    -0.652668    -2.308069
 C    -5.582281     0.652668     2.308069
 C    -5.504616     1.790105    -1.849384
 C     5.504616    -1.790105     1.849384
 C     5.471531     2.569417     0.830514
 C    -5.471531    -2.569417    -0.830514
 C     4.148855    -2.341845    -3.524254
 C    -4.148855     2.341845     3.524254
 C    -4.021447     1.980498    -3.882862
 C     4.021447    -1.980498     3.882862
 C     4.029940     4.297323    -0.306601
 C    -4.029940    -4.297323     0.306601
 C     1.070595     2.619605    -5.662265
 C    -1.070595    -2.619605     5.662265
 C    -1.930422     6.345248     0.260683
 C     1.930422    -6.345248    -0.260683
 C     1.627492     3.149589     5.557342
 C    -1.627492    -3.149589    -5.557342
 C    -0.178788     3.528361    -3.699011
 C     0.178788    -3.528361     3.699011
 C     0.355842     5.315276     0.170246
 C    -0.355842    -5.315276    -0.170246
 C    -0.443173     1.958586     4.813110
 C     0.443173    -1.958586    -4.813110
 C     2.228412     4.160391    -4.027147
 C    -2.228412    -4.160391     4.027147
 C    -1.139594     4.904981     2.152196
 C     1.139594    -4.904981    -2.152196
 C     1.625483     0.643292     5.385064
 C    -1.625483    -0.643292    -5.385064
 H     0.694646     3.472847    -6.247261
 H    -0.694646    -3.472847     6.247261
 H    -1.511856     7.219433     0.780553
 H     1.511856    -7.219433    -0.780553
 H     1.220879     3.109114     6.578508
 H    -1.220879    -3.109114    -6.578508
 H     2.035112     2.320848    -6.095273
 H    -2.035112    -2.320848     6.095273
 H    -2.981907     6.243086     0.568174
 H     2.981907    -6.243086    -0.568174
 H     2.724211     3.143393     5.639033
 H    -2.724211    -3.143393    -5.639033
 H     0.370215     1.781547    -5.786620
 H    -0.370215    -1.781547     5.786620
 H    -1.904487     6.556186    -0.818574
 H     1.904487    -6.556186     0.818574
 H     1.319762     4.105099     5.107155
 H    -1.319762    -4.105099    -5.107155
 H     1.925218     5.030855    -4.629854
 H    -1.925218    -5.030855     4.629854
 H    -0.767292     5.813342     2.651194
 H     0.767292    -5.813342    -2.651194
 H     1.279520     0.560300     6.427463
 H    -1.279520    -0.560300    -6.427463
 H     2.307455     4.478132    -2.977561
 H    -2.307455    -4.478132     2.977561
 H    -0.504537     4.067893     2.467476
 H     0.504537    -4.067893    -2.467476
 H     1.266899    -0.236618     4.833619
 H    -1.266899     0.236618    -4.833619
 H     3.226859     3.843426    -4.361972
 H    -3.226859    -3.843426     4.361972
 H    -2.162872     4.712393     2.505854
 H     2.162872    -4.712393    -2.505854
 H     2.724965     0.618539     5.384196
 H    -2.724965    -0.618539    -5.384196
 H    -0.513385     4.348491    -4.351738
 H     0.513385    -4.348491     4.351738
 H     0.774895     6.205037     0.666630
 H    -0.774895    -6.205037    -0.666630
 H    -0.767438     1.920422     5.864765
 H     0.767438    -1.920422    -5.864765
 H    -0.937780     2.735262    -3.730182
 H     0.937780    -2.735262     3.730182
 H     0.417106     5.468841    -0.917364
 H    -0.417106    -5.468841     0.917364
 H    -0.853850     2.871623     4.361736
 H     0.853850    -2.871623    -4.361736
 H    -0.149990     3.914042    -2.672136
 H     0.149990    -3.914042     2.672136
 H     0.984717     4.454576     0.428341
 H    -0.984717    -4.454576    -0.428341
 H    -0.889144     1.099690     4.298796
 H     0.889144    -1.099690    -4.298796
 H     5.987479    -1.006576    -5.002968
 H    -5.987479     1.006576     5.002968
 H    -5.820595     3.962759    -3.501924
 H     5.820595    -3.962759     3.501924
 H     5.622685     5.203029     1.659699
 H    -5.622685    -5.203029    -1.659699
 H     4.386319    -0.490912    -5.578751
 H    -4.386319     0.490912     5.578751
 H    -4.210881     4.687771    -3.291313
 H     4.210881    -4.687771     3.291313
 H     3.958633     5.365256     2.268315
 H    -3.958633    -5.365256    -2.268315
 H     5.445892     0.660272    -4.722646
 H    -5.445892    -0.660272     4.722646
 H    -5.314620     4.532580    -1.898855
 H     5.314620    -4.532580     1.898855
 H     5.077519     4.191672     3.010409
 H    -5.077519    -4.191672    -3.010409
 H     6.491042    -1.226005    -2.549178
 H    -6.491042     1.226005     2.549178
 H    -6.402774     1.744949    -2.485048
 H     6.402774    -1.744949     2.485048
 H     6.384310     3.086904     0.495716
 H    -6.384310    -3.086904    -0.495716
 H     5.858981     0.408097    -2.212903
 H    -5.858981    -0.408097     2.212903
 H    -5.788148     2.232899    -0.883058
 H     5.788148    -2.232899     0.883058
 H     5.697140     2.042652     1.769749
 H    -5.697140    -2.042652    -1.769749
 H     5.213305    -0.993483    -1.331160
 H    -5.213305     0.993483     1.331160
 H    -5.167271     0.761050    -1.662785
 H     5.167271    -0.761050     1.662785
 H     5.207126     1.815937     0.075260
 H    -5.207126    -1.815937    -0.075260
 H     5.042812    -2.930714    -3.781732
 H    -5.042812     2.930714     3.781732
 H    -4.901614     1.936023    -4.542872
 H     4.901614    -1.936023     4.542872
 H     4.929937     4.834164    -0.643431
 H    -4.929937    -4.834164     0.643431
 H     3.746463    -2.734100    -2.580822
 H    -3.746463     2.734100     2.580822
 H    -3.650399     0.956724    -3.748809
 H     3.650399    -0.956724     3.748809
 H     3.750142     3.591832    -1.099647
 H    -3.750142    -3.591832     1.099647
 H     3.392674    -2.502372    -4.305675
 H    -3.392674     2.502372     4.305675
 H    -3.238481     2.559440    -4.393229
 H     3.238481    -2.559440     4.393229
 H     3.216451     5.027744    -0.198953
 H    -3.216451    -5.027744     0.198953
