   66
scf done: -2158.226710
Cl     2.903320     2.571541     0.611151
Cl     0.708225    -3.237830    -0.686426
 C     0.442512    -0.526373    -0.353694
 C    -1.016041    -0.249830     0.021644
 C    -0.482925     1.416756     0.081319
 C     0.914000     0.777514    -0.047508
 C     2.267349     1.027365     0.043122
 C     3.206470    -0.016039    -0.282089
 C     4.613370     0.196448    -0.284585
 C     5.497803    -0.821098    -0.598319
 C     5.014926    -2.110694    -0.920337
 C     3.653866    -2.360466    -0.923145
 C     2.712998    -1.340203    -0.613087
 C     1.296643    -1.581395    -0.581995
 C    -1.292869    -1.018163     1.353404
 C    -0.228065    -1.452890     2.174136
 C    -0.447116    -2.198552     3.336302
 C    -1.747322    -2.544687     3.723231
 C    -2.816697    -2.139913     2.918361
 C    -2.590171    -1.401791     1.749056
 C    -2.120348    -0.589632    -0.971664
 C    -1.923479    -1.526878    -2.000189
 C    -2.952668    -1.855900    -2.890178
 C    -4.212655    -1.256149    -2.771216
 C    -4.428827    -0.326746    -1.746125
 C    -3.395598    -0.003864    -0.857887
 C    -0.825774     2.214433     1.426850
 C    -2.336292     2.133130     1.754234
 C    -0.451362     3.723270     1.421982
 C    -0.067712     1.641974     2.655788
 C    -0.724268     2.231356    -1.318779
 C    -0.637777     1.351967    -2.601420
 C    -2.076300     2.974824    -1.419450
 C     0.419800     3.265765    -1.531159
 H     4.991444     1.186414    -0.040219
 H     6.570399    -0.623856    -0.598141
 H     5.713851    -2.909996    -1.169171
 H     3.281085    -3.352094    -1.170421
 H     0.795167    -1.191522     1.919811
 H     0.408452    -2.509416     3.937716
 H    -1.921297    -3.129490     4.627519
 H    -3.839714    -2.409913     3.185317
 H    -3.447909    -1.148842     1.133543
 H    -0.946597    -1.978246    -2.136239
 H    -2.761865    -2.579103    -3.684652
 H    -5.013893    -1.507818    -3.467375
 H    -5.401966     0.154193    -1.634841
 H    -3.584142     0.719677    -0.070045
 H    -2.665802     1.098431     1.890217
 H    -2.961620     2.611068     0.992130
 H    -2.521635     2.656876     2.704213
 H    -0.938948     4.302869     0.634004
 H    -0.778829     4.150392     2.381590
 H     0.631243     3.874594     1.354367
 H    -0.169594     2.348352     3.492886
 H     1.004177     1.518038     2.461007
 H    -0.472199     0.686743     2.990809
 H     0.179669     0.621903    -2.563576
 H    -1.566264     0.824811    -2.823487
 H    -0.435351     2.019908    -3.451710
 H    -2.925874     2.291341    -1.341726
 H    -2.132917     3.444613    -2.413343
 H    -2.198477     3.773825    -0.681770
 H     0.144967     3.907983    -2.380988
 H     0.619560     3.913863    -0.680109
 H     1.355783     2.760055    -1.797255
