   66
scf done: -2158.242469
Cl    -1.911646     2.976434    -1.150563
Cl    -1.911558    -2.976522     1.150484
 C    -0.707241    -0.658813     0.264575
 C     0.818706    -0.724895     0.453968
 C     0.818685     0.724946    -0.453973
 C    -0.707268     0.658781    -0.264610
 C    -1.884480     1.335189    -0.501975
 C    -3.140207     0.682497    -0.245384
 C    -4.392166     1.320097    -0.471060
 C    -5.588861     0.666036    -0.236885
 C    -5.588842    -0.666232     0.236827
 C    -4.392122    -1.320243     0.471025
 C    -3.140185    -0.682601     0.245337
 C    -1.884441    -1.335255     0.501910
 C     1.545189    -1.891341    -0.195390
 C     0.845666    -2.883768    -0.903853
 C     1.512090    -3.949994    -1.522339
 C     2.904855    -4.056263    -1.437451
 C     3.619022    -3.081110    -0.727357
 C     2.947262    -2.016997    -0.119522
 C     1.138507    -0.637097     2.053037
 C    -0.002890     0.064374     2.830314
 C     1.240782    -2.085514     2.599751
 C     2.440724     0.092137     2.474892
 C     1.545043     1.891468     0.195396
 C     0.845438     2.883758     0.903962
 C     1.511767     3.950012     1.522502
 C     2.904517     4.056463     1.437561
 C     3.618765     3.081452     0.727351
 C     2.947105     2.017298     0.119475
 C     1.138530     0.637070    -2.052992
 C    -0.002775    -0.064569    -2.830270
 C     1.240710     2.085469    -2.599807
 C     2.440778    -0.092096    -2.474849
 H    -4.396380     2.343738    -0.838009
 H    -6.532390     1.181498    -0.419523
 H    -6.532355    -1.181727     0.419451
 H    -4.396297    -2.343869     0.838009
 H    -0.236074    -2.824756    -0.983441
 H     0.935278    -4.697713    -2.068899
 H     3.427754    -4.884738    -1.917186
 H     4.706190    -3.141441    -0.655129
 H     3.531304    -1.256293     0.389320
 H    -0.934323    -0.513953     2.819316
 H     0.307453     0.173915     3.880239
 H    -0.212322     1.067032     2.442269
 H     2.177796    -2.569362     2.298886
 H     1.215176    -2.048796     3.699265
 H     0.412673    -2.716434     2.263812
 H     2.324389     1.178107     2.494936
 H     2.684032    -0.230569     3.499297
 H     3.309141    -0.142302     1.852816
 H    -0.236292     2.824649     0.983574
 H     0.934893     4.697608     2.069161
 H     3.427301     4.884991     1.917328
 H     4.705925     3.141906     0.655094
 H     3.531230     1.256720    -0.389450
 H    -0.212070    -1.067256    -2.442219
 H    -0.934310     0.513605    -2.819301
 H     0.307610    -0.174045    -3.880186
 H     0.412710     2.716459    -2.263726
 H     2.177781     2.569305    -2.299122
 H     1.214908     2.048766    -3.699318
 H     2.684189     0.230757    -3.499175
 H     3.309156     0.142215    -1.852671
 H     2.324439    -1.178073    -2.495058
