   66
scf done: -1140.055913
 N     1.362868    -0.289881     0.863251
 C     2.644933    -0.752244     0.379312
 C     0.846565     0.957820     0.514816
 C     2.714957    -1.585304    -0.756356
 C     3.983541    -1.997370    -1.205784
 H     4.039303    -2.633155    -2.092648
 C     3.819181    -0.411619     1.098628
 C     5.055174    -0.864476     0.622005
 H     5.960045    -0.600235     1.174083
 C     5.163109    -1.640559    -0.544832
 C     1.493365    -2.092821    -1.486356
 H     0.572918    -1.831212    -0.958726
 H     1.543873    -3.187282    -1.591190
 H     1.436102    -1.673566    -2.503038
 B     0.701442     1.351195    -1.159089
 H     1.174041     0.607114    -1.954251
 B     0.778780     2.303197     1.517150
 H     1.277670     2.176514     2.592736
 C     6.516823    -2.073463    -1.060999
 H     7.156533    -2.446402    -0.247180
 H     7.048390    -1.229261    -1.529146
 H     6.424979    -2.867087    -1.815186
 C     3.763081     0.408455     2.367241
 H     3.441881     1.439232     2.169431
 H     4.751648     0.446484     2.842924
 H     3.058397    -0.009647     3.103364
 B     1.709865     2.294803    -0.001492
 H     2.893252     2.172232    -0.051260
 B     0.752273     3.134699    -1.229163
 H     1.299337     3.703861    -2.125524
 B     0.753012     3.726752     0.459894
 H     1.305519     4.731642     0.795710
 H     1.184262    -0.510140     1.839639
 N    -1.362977    -0.289778    -0.863584
 C    -2.644938    -0.752271    -0.379463
 C    -0.846657     0.957895    -0.514888
 C    -2.714742    -1.585547     0.756062
 C    -3.983250    -1.997662     1.205678
 H    -4.038844    -2.633605     2.092438
 C    -3.819324    -0.411568    -1.098522
 C    -5.055229    -0.864446    -0.621704
 H    -5.960205    -0.600110    -1.173564
 C    -5.162947    -1.640694     0.545047
 C    -1.493023    -2.093184     1.485758
 H    -0.572785    -1.833148     0.956979
 H    -1.544488    -3.187431     1.592232
 H    -1.434440    -1.672494     2.501777
 B    -0.701554     1.351022     1.159028
 H    -1.174168     0.606854     1.954103
 B    -0.778907     2.303402    -1.517045
 H    -1.277826     2.176866    -2.592644
 C    -6.516576    -2.073689     1.061357
 H    -7.155883    -2.447883     0.247787
 H    -7.048703    -1.229221     1.528377
 H    -6.424534    -2.866416     1.816458
 C    -3.763414     0.408508    -2.367143
 H    -3.441263     1.439019    -2.169555
 H    -4.752256     0.447314    -2.842193
 H    -3.059564    -0.010180    -3.103745
 B    -1.709976     2.294820     0.001597
 H    -2.893358     2.172221     0.051378
 B    -0.752385     3.134546     1.229375
 H    -1.299449     3.703568     2.125824
 B    -0.753125     3.726820    -0.459597
 H    -1.305623     4.731759    -0.795284
 H    -1.184886    -0.509450    -1.840208
