   58
scf done: -1979.389830
 I    -1.721023     3.572887    -0.081051
 I    -1.720738    -3.573012     0.080992
 C     0.785910     0.892670     0.028707
 C     0.785995    -0.892566    -0.028815
 C    -0.710079    -0.707236     0.018576
 C    -1.872403    -1.435518     0.038358
 C    -3.127845    -0.732426     0.021754
 C    -4.382460    -1.401764     0.041982
 C    -5.579366    -0.706944     0.021185
 C    -5.579425     0.706511    -0.021493
 C    -4.382575     1.401428    -0.042250
 C    -3.127908     0.732188    -0.022000
 C    -1.872531     1.435396    -0.038587
 C    -0.710152     0.707196    -0.018839
 C     1.416589     1.437142     1.283785
 C     0.961753     1.408359     2.599613
 C     1.779831     1.943263     3.611216
 C     3.030148     2.498430     3.297540
 C     3.470005     2.571141     1.965138
 C     2.650396     2.056105     0.955424
 C     2.753532     2.123585    -0.510505
 C     3.709750     2.721241    -1.338004
 C     3.471036     2.772793    -2.721247
 C     2.284163     2.255570    -3.262948
 C     1.328491     1.638852    -2.435920
 C     1.579902     1.548215    -1.068241
 C     1.579865    -1.548042     1.068264
 C     1.328202    -1.638765     2.435888
 C     2.283752    -2.255472     3.263068
 C     3.470749    -2.772613     2.721561
 C     3.709719    -2.720980     1.338363
 C     2.753632    -2.123322     0.510719
 C     2.650724    -2.055854    -0.955226
 C     3.470513    -2.570838    -1.964816
 C     3.030819    -2.498224    -3.297281
 C     1.780501    -1.943175    -3.611149
 C     0.962245    -1.408299    -2.599667
 C     1.416906    -1.437003    -1.283785
 H    -4.385052    -2.490645     0.074486
 H    -6.522841    -1.253417     0.037900
 H    -6.522945     1.252906    -0.038244
 H    -4.385242     2.490308    -0.074727
 H    -0.019465     0.998745     2.839243
 H     1.436306     1.929895     4.646272
 H     3.656458     2.902344     4.094283
 H     4.422032     3.046076     1.723207
 H     4.614085     3.162563    -0.916313
 H     4.205417     3.241171    -3.378180
 H     2.097450     2.334566    -4.334564
 H     0.400611     1.258074    -2.857679
 H     0.400224    -1.258043     2.857498
 H     2.096858    -2.334510     4.334649
 H     4.205017    -3.241015     3.378605
 H     4.614154    -3.162241     0.916818
 H     4.422556    -3.045675    -1.722750
 H     3.657267    -2.902124    -4.093923
 H     1.437112    -1.929882    -4.646249
 H    -0.018951    -0.998715    -2.839463
