   54
scf done: -1306.721366
 C     0.000100     0.649363     0.879332
 C    -0.000036     0.649036    -0.879323
 C    -0.000139    -1.929481     0.682923
 C    -0.000221    -1.929766    -0.682078
 C    -1.234978    -0.021839     1.445704
 C    -2.347708     0.643647     1.964948
 H    -2.359726     1.733682     1.996619
 C    -3.450209    -0.095002     2.427470
 H    -4.316788     0.427359     2.835558
 C    -3.444940    -1.493406     2.358606
 H    -4.306981    -2.060708     2.712615
 C    -2.336112    -2.171601     1.823311
 H    -2.334614    -3.259172     1.742156
 C    -1.237716    -1.441739     1.371332
 C     1.235097    -0.022052     1.445598
 C     2.347971     0.643232     1.964787
 H     2.360192     1.733263     1.996452
 C     3.450358    -0.095616     2.427266
 H     4.317053     0.426591     2.835303
 C     3.444827    -1.494018     2.358413
 H     4.306771    -2.061482     2.712399
 C     2.335851    -2.172014     1.823169
 H     2.334154    -3.259585     1.742021
 C     1.237572    -1.441958     1.371225
 C    -1.235121    -0.022385    -1.445434
 C    -2.347798     0.642913    -1.965019
 H    -2.359856     1.732937    -1.996987
 C    -3.450220    -0.095907    -2.427470
 H    -4.316746     0.426312    -2.835853
 C    -3.444909    -1.494287    -2.358204
 H    -4.306879    -2.061725    -2.712168
 C    -2.336133    -2.172294    -1.822546
 H    -2.334624    -3.259841    -1.741074
 C    -1.237835    -1.442268    -1.370605
 C     1.234919    -0.022565    -1.445548
 C     2.347683     0.642554    -1.965166
 H     2.359920     1.732575    -1.997141
 C     3.449973    -0.096444    -2.427656
 H     4.316570     0.425642    -2.836060
 C     3.444447    -1.494820    -2.358393
 H     4.306310    -2.062396    -2.712395
 C     2.335581    -2.172653    -1.822696
 H     2.333906    -3.260199    -1.741211
 C     1.237415    -1.442451    -1.370724
 C     0.000218     2.154871     0.699436
 C     0.000504     3.335834     1.440826
 H     0.000621     3.344686     2.531682
 C     0.000623     4.537964     0.703032
 H     0.000835     5.491881     1.232948
 C     0.000487     4.537712    -0.704390
 H     0.000602     5.491441    -1.234641
 C     0.000222     3.335320    -1.441761
 H     0.000131     3.343776    -2.532619
 C     0.000087     2.154615    -0.699965
