   74
scf done: -1243.923299
 C    -0.630431    -0.029429    -0.123358
 C    -0.969239    -1.542603    -0.413005
 C     1.044725     0.186475     0.180322
 C    -2.401633    -1.743040    -0.970223
 C     1.210715     1.316415     1.235245
 C    -1.708749     0.384726     1.005996
 C     1.837103     0.602277    -1.122379
 C    -1.757289     1.896007     1.354061
 C    -2.455196     0.579777    -1.875755
 C     2.758696    -1.722230    -1.571469
 C    -1.024808     0.873001    -1.355255
 C    -3.172282     0.122720     0.443545
 C    -1.570535    -0.504780     2.261005
 C     3.286511     1.070013    -0.782431
 C     3.370783    -0.584409     1.066303
 C    -0.962851     2.385932    -1.030113
 C    -3.420329    -1.352764     0.117779
 C     1.909566    -1.039197     0.719666
 C    -3.474152     0.983288    -0.793898
 C     4.093202    -0.116731    -0.217347
 C     2.654285     1.737835     1.534429
 C     1.943963    -0.548831    -2.149617
 C     4.182967    -1.244272    -1.252389
 C     2.101183    -2.217819    -0.269780
 C    -1.843296    -1.989061     1.929784
 C     3.407801     0.535899     2.108297
 C    -1.967193     2.752445     0.082762
 C     3.298444     2.223318     0.228328
 C    -2.615198    -0.901085    -2.231698
 C    -3.378627     2.476285    -0.458959
 C    -0.868362    -2.452653     0.838108
 C    -3.270005    -2.182140     1.397996
 H    -0.353274     0.661734    -2.194803
 H     2.792860    -2.545455    -2.303544
 H     2.630712     2.559334     2.269803
 H     2.930454     0.205757     3.046510
 H    -1.881314    -1.186870    -3.004739
 H     0.136212    -2.498761     1.253246
 H    -4.493494     0.746082    -1.145916
 H    -2.614261     1.197050    -2.777115
 H     0.950032    -0.897331    -2.461080
 H    -1.228660     2.944180    -1.944110
 H     4.685863    -0.881240    -2.164770
 H     4.784333    -2.079888    -0.856315
 H    -3.858205     0.418125     1.257632
 H    -2.623741     2.049737     2.020930
 H    -4.140564     2.744163     0.292104
 H     4.334594     2.558513     0.402901
 H     0.049390     2.710186    -0.768160
 H     1.356405     1.460492    -1.602243
 H     2.738523     3.088252    -0.166565
 H    -3.618567    -1.085905    -2.651172
 H    -0.291292    -1.907104    -1.191426
 H     2.440453    -0.168335    -3.058657
 H     1.478382    -1.394660     1.665824
 H     3.749908     1.402666    -1.727922
 H    -3.453649    -3.250844     1.196239
 H    -4.017078    -1.855156     2.141000
 H    -0.567450    -0.406948     2.701309
 H    -2.515601    -2.813215    -1.216258
 H     4.453088     0.796193     2.346527
 H     0.742728     0.999460     2.175868
 H    -1.695144    -2.595908     2.838124
 H    -3.574832     3.084950    -1.357950
 H     0.686577     2.210799     0.900970
 H     2.762034    -2.960291     0.209518
 H     1.177073    -2.748545    -0.500438
 H    -0.894206     2.233691     1.928563
 H    -1.862493     3.819677     0.337517
 H    -4.443399    -1.463107    -0.282934
 H     3.889216    -1.472107     1.468138
 H    -1.121854    -3.482489     0.533114
 H    -2.286226    -0.157298     3.026374
 H     5.107846     0.228190     0.048198
