   23
scf done:  -740.055858
 C     7.889587     5.699346     9.891335
 C     8.075123     6.989781    10.376660
 C     7.047949     7.932232    10.233882
 C     5.852301     7.553046     9.603256
 C     5.712647     6.253845     9.134806
 N     6.723651     5.353105     9.283803
 C     6.532207     3.976793     8.768969
 C     7.567402     2.834262     8.852346
 C     5.419738     2.994638     9.221779
 C     6.245559     3.601977     7.290931
 C     6.290628     2.292376     8.135819
 I     6.018318     0.309184     7.395682
 H     8.639465     4.917251     9.965963
 H     9.016771     7.243387    10.859136
 H     7.175065     8.947240    10.607587
 H     5.031376     8.255166     9.473050
 H     4.818928     5.887247     8.637318
 H     7.772894     2.416464     9.844769
 H     8.464191     2.924866     8.228445
 H     4.390720     3.236568     8.931302
 H     5.496428     2.599891    10.240896
 H     7.063249     3.752240     6.577407
 H     5.265603     3.879997     6.885756
