   28
scf done:  -442.520741
 C    -0.799765     0.965597    -0.057573
 N    -2.054493     1.569727    -0.079063
 B    -0.432065     0.024339     1.332503
 C    -0.832920    -0.921927    -0.044935
 N    -2.108105    -1.481828    -0.058555
 B     0.482577    -1.449034     0.866137
 B     1.346256    -0.006296     1.423265
 B     1.934218    -0.911148    -0.006772
 B     1.965281     0.858144    -0.018633
 B     0.533663     1.458305     0.846696
 B     0.558141     1.445995    -0.931403
 B    -0.393950     0.005141    -1.423681
 B     0.507175    -1.461491    -0.911972
 B     1.386100    -0.026373    -1.464840
 H     1.977255    -0.043577    -2.502334
 H     0.308921    -2.444284     1.501866
 H     0.350787    -2.465740    -1.537947
 H    -1.223800     0.044185     2.223299
 H    -1.160803     0.012571    -2.336178
 H     2.981623     1.485272    -0.008850
 H     0.437263     2.446542    -1.571019
 H     0.395172     2.467537     1.468872
 H     2.927875    -1.573447     0.011835
 H     1.908384    -0.009151     2.476896
 H    -2.306509    -2.015861    -0.899934
 H    -2.329714    -2.003926     0.784518
 H    -2.257522     2.110622     0.756802
 H    -2.234352     2.098857    -0.927672
