   54
scf done:  -982.874120
 B    -1.183905     2.014975    -0.000000
 B    -0.788236     2.995610     1.462680
 B     0.987512     3.133302     1.458867
 B     1.519385     2.226167     0.000000
 B    -1.403117     3.783642    -0.000000
 B    -0.008013     4.487251     0.882316
 B     1.473624     4.011615     0.000000
 C     0.200003     1.730744     0.988833
 N     0.346409     0.488196     1.584098
 C    -0.702679    -0.046757     2.463020
 H    -1.637297    -0.067604     1.883786
 H    -0.878078     0.612942     3.330549
 C    -0.340266    -1.438950     2.938146
 C    -0.579418    -1.819742     4.268651
 H    -1.005638    -1.096777     4.967121
 C    -0.275052    -3.116752     4.703503
 H    -0.465136    -3.398876     5.740028
 C     0.283237    -4.044165     3.813462
 H     0.526010    -5.051915     4.153293
 C     0.534342    -3.668051     2.485986
 H     0.971510    -4.383095     1.787072
 C     0.222839    -2.374305     2.052922
 H     0.421184    -2.069855     1.026597
 H    -2.048371     1.196546    -0.000000
 H     2.476132     4.660838     0.000000
 H    -1.429036     2.832996     2.455038
 H     2.481761     1.519786     0.000000
 H    -2.490811     4.276699    -0.000000
 H     1.640396     3.045254     2.454665
 H    -0.090330     5.490944     1.524934
 H     1.282881     0.337735     1.951486
 B    -0.788236     2.995610    -1.462680
 B     0.987512     3.133302    -1.458867
 B    -0.008013     4.487251    -0.882316
 C     0.200003     1.730744    -0.988833
 N     0.346409     0.488196    -1.584098
 C    -0.702679    -0.046757    -2.463020
 H    -1.637297    -0.067604    -1.883786
 H    -0.878078     0.612942    -3.330549
 C    -0.340266    -1.438950    -2.938146
 C    -0.579418    -1.819742    -4.268651
 H    -1.005638    -1.096777    -4.967121
 C    -0.275052    -3.116752    -4.703503
 H    -0.465136    -3.398876    -5.740028
 C     0.283237    -4.044165    -3.813462
 H     0.526010    -5.051915    -4.153293
 C     0.534342    -3.668051    -2.485986
 H     0.971510    -4.383095    -1.787072
 C     0.222839    -2.374305    -2.052922
 H     0.421184    -2.069855    -1.026597
 H    -1.429036     2.832996    -2.455038
 H     1.640396     3.045254    -2.454665
 H    -0.090330     5.490944    -1.524934
 H     1.282881     0.337735    -1.951486
