   50
scf done:  -980.449700
 B     5.739103     3.517879     3.603408
 B     4.200866     4.417779     3.619146
 B     3.589819     4.417766     5.288717
 B     5.743752     5.289947     3.590716
 B     4.410272     5.850989     4.642416
 C     4.434340     3.073691     4.651199
 C     2.701421     1.661401     4.016971
 H     2.065799     2.530610     3.784247
 N     3.904933     1.791107     4.457507
 C     2.100615     0.344209     3.797014
 C     0.778805     0.265465     3.313468
 H     0.226208     1.185122     3.111438
 C     0.179264    -0.979228     3.094006
 H    -0.843608    -1.033329     2.719844
 C     0.896756    -2.154562     3.356316
 H     0.431022    -3.126236     3.185796
 C     2.215672    -2.083871     3.838786
 H     2.770206    -3.001082     4.041513
 C     2.816750    -0.844651     4.058828
 H     3.837181    -0.764979     4.432109
 H     2.430507     4.252142     5.513962
 H     6.044719     2.731084     2.768507
 H     3.460791     4.252166     2.698797
 H     6.102622     5.869821     2.610305
 H     3.800594     6.853498     4.419366
 B     4.754406     3.517886     6.293780
 B     6.292644     4.417785     6.278037
 B     6.903692     4.417763     4.608467
 B     4.749759     5.289954     6.306463
 B     6.083239     5.850990     5.254760
 C     6.059169     3.073691     5.245990
 C     7.792086     1.661404     5.880227
 H     8.427709     2.530615     6.112943
 N     6.588576     1.791109     5.439689
 C     8.392896     0.344214     6.100181
 C     9.714708     0.265472     6.583722
 H    10.267304     1.185131     6.785750
 C    10.314253    -0.979219     6.803181
 H    11.337125    -1.033319     7.177340
 C     9.596761    -2.154555     6.540874
 H    10.062498    -3.126227     6.711392
 C     8.277844    -2.083866     6.058409
 H     7.723311    -3.001079     5.855684
 C     7.676762    -0.844647     5.838369
 H     6.656330    -0.764978     5.465092
 H     8.063003     4.252136     4.383221
 H     4.448789     2.731096     7.128684
 H     7.032718     4.252174     7.198387
 H     4.390889     5.869833     7.286871
 H     6.692918     6.853499     5.477805
