   55
scf done: -1020.934679
 B    -2.313548    -0.055008    -1.469768
 H    -1.543703    -0.135659    -2.370969
 B    -3.110556     1.426170    -0.966133
 H    -2.946694     2.411753    -1.615270
 B    -3.020611     1.534999     0.822056
 H    -2.840367     2.591299     1.341799
 B    -2.205074     0.111218     1.477224
 H    -1.370053     0.146093     2.319673
 B    -3.080053    -1.342117     1.023888
 H    -2.916548    -2.336415     1.660733
 B    -3.132986    -1.446298    -0.769203
 H    -3.012571    -2.506433    -1.299262
 B    -4.053779    -0.031507    -1.380758
 H    -4.693056    -0.098551    -2.387228
 B    -3.940116     0.154770     1.506204
 H    -4.507666     0.243774     2.553166
 B    -4.534363    -0.829016     0.139767
 H    -5.543467    -1.462344     0.219263
 B    -4.510341     0.962914     0.021654
 H    -5.500340     1.630341     0.026280
 N    -0.383842     1.201048    -0.196894
 N    -0.411061    -1.179721     0.081122
 C    -1.752973     0.826597    -0.079221
 C    -1.780385    -0.784388     0.052435
 C     0.396732    -0.028556    -0.418586
 H     1.350447     0.025921     0.117499
 H     0.609176    -0.158575    -1.495578
 C    -0.077357    -2.457058    -0.555913
 H    -0.233459    -2.415740    -1.652306
 H    -0.772084    -3.208950    -0.154879
 C     1.357281    -2.838200    -0.247210
 C     1.820705    -2.821320     1.080951
 H     1.137905    -2.517500     1.875508
 C     3.143084    -3.171590     1.373883
 H     3.492742    -3.153894     2.407279
 C     4.017842    -3.546210     0.342251
 H     5.049043    -3.818808     0.570942
 C     3.563192    -3.563273    -0.982399
 H     4.239125    -3.846826    -1.790345
 C     2.239281    -3.205395    -1.274551
 H     1.888628    -3.209327    -2.308604
 C     0.154298     2.137101     0.804959
 H     0.237857     1.671275     1.803243
 H    -0.571418     2.957130     0.888227
 C     1.501080     2.673212     0.364891
 C     2.599915     2.642744     1.237371
 H     2.481605     2.215534     2.235362
 C     3.842777     3.153633     0.836437
 H     4.688997     3.123491     1.524251
 C     3.997095     3.692491    -0.446930
 H     4.963921     4.086747    -0.762872
 C     2.904454     3.718042    -1.327661
 H     3.020483     4.133753    -2.329706
 C     1.664375     3.211387    -0.924426
 H     0.814572     3.216692    -1.608145
