   70
scf done: -1617.455076
 H    -6.100941    -0.884719    -1.824050
 C    -4.386262     0.000594     0.775251
 C    -3.500827     0.000663    -0.320636
 C    -4.108259     0.000489    -1.594117
 C    -3.265604     0.000215    -2.706224
 C    -5.804383     0.000507     0.207802
 C    -5.619763     0.000351    -1.368598
 H    -3.671041     0.000027    -3.724714
 H    -6.377085    -0.884236     0.541802
 H    -6.377110     0.885325     0.541582
 H    -6.101211     0.885172    -1.824255
 H    -0.326149    -4.596057    -0.877981
 C    -1.517967     0.000313     1.117029
 C    -2.389884     0.000291     2.214989
 C    -3.819346     0.000405     2.050175
 C    -1.835878     0.000126    -2.540555
 C    -1.257970     0.000261    -1.271838
 C    -2.112174     0.000523    -0.157728
 C     0.013791     0.000064     1.001347
 C     0.617320     1.275508     1.598430
 C    -0.209822     2.254820     2.190020
 C     0.271997     3.505458     2.594236
 C     1.619201     3.834595     2.388423
 C     2.463504     2.878153     1.825474
 C     2.004494     1.588257     1.460510
 C     3.012652     0.678810     0.944894
 C     3.012486    -0.679371     0.944976
 C     2.004100    -1.588556     1.460608
 C     2.462813    -2.878554     1.825611
 C     1.618271    -3.834841     2.388454
 C     0.271099    -3.505461     2.594087
 C    -0.210426    -2.254717     2.189858
 C     0.616979    -1.275523     1.598426
 C     0.213854     0.000012    -0.835831
 C     0.798849     1.350528    -1.262706
 C    -0.032053     2.460017    -0.970080
 C     0.355823     3.787599    -1.163803
 C     0.354592    -3.787651    -1.163602
 C    -0.032873    -2.459923    -0.970019
 C     0.798404    -1.350724    -1.262646
 H    -1.988217     0.000137     3.234810
 H    -4.444087     0.000328     2.950954
 H    -1.278134     2.058408     2.291263
 H    -0.419033     4.232746     3.034546
 H     2.006119     4.821683     2.663500
 H     3.522777     3.109782     1.664960
 H     3.925700     1.167251     0.582301
 H     3.925426    -1.168067     0.582457
 H     3.522054    -3.110403     1.665187
 H     2.004994    -4.821986     2.663596
 H    -0.420141    -4.232632     3.034259
 H    -1.278719    -2.058133     2.290926
 H    -1.018047     2.274918    -0.540159
 H    -0.324619     4.596257    -0.878188
 H    -1.018864    -2.274475    -0.540222
 H     1.948998    -5.096078    -1.868562
 C     1.617032     4.064597    -1.709037
 C     2.438277     2.994730    -2.054116
 C     2.068136     1.635519    -1.847698
 C     3.070212     0.677662    -2.279497
 C     3.070056    -0.678664    -2.279303
 C     2.067669    -1.636166    -1.847472
 C     2.437403    -2.995512    -2.053724
 C     1.615774    -4.065093    -1.708654
 H    -1.199990    -0.000143    -3.432681
 H     1.950547     5.095471    -1.869055
 H     3.419284     3.190013    -2.503425
 H     3.975776     1.147400    -2.686290
 H     3.975531    -1.148715    -2.685936
 H     3.418407    -3.191148    -2.502889
