   68
scf done: -1616.228701
 C     1.571626     0.000375     1.102458
 C     2.466086     0.000646     2.187236
 C     3.893480     0.000757     2.001519
 C     4.448692     0.000609     0.713994
 C     3.521593     0.000339    -0.355848
 C     4.146885     0.000227    -1.626481
 C     3.290241    -0.000014    -2.737246
 C     1.861079    -0.000131    -2.563510
 C     1.285259    -0.000003    -1.290122
 C     2.152125     0.000253    -0.180731
 C     5.771140     0.000669     0.053914
 C     5.593105     0.000436    -1.320236
 C     0.040502     0.000204     1.005763
 C    -0.554807     1.277587     1.602694
 C     0.280375     2.259556     2.178773
 C    -0.196159     3.512395     2.582188
 C    -1.545795     3.840481     2.391249
 C    -2.397201     2.881789     1.842964
 C    -1.943254     1.590023     1.478236
 C    -2.957039     0.679036     0.976867
 C    -2.956880    -0.679250     0.976879
 C    -1.942934    -1.589925     1.478505
 C    -2.396599    -2.881722     1.843407
 C    -1.545025    -3.840076     2.392059
 C    -0.195534    -3.511583     2.583214
 C     0.280747    -2.258697     2.179582
 C    -0.554574    -1.277126     1.603081
 C    -0.180784    -0.000128    -0.843184
 C    -0.768186     1.350474    -1.261834
 C     0.067745     2.459437    -0.980960
 C    -0.321725     3.787109    -1.171868
 C    -1.590309     4.064015    -1.699341
 C    -2.417579     2.994419    -2.031269
 C    -2.045616     1.635293    -1.829482
 C    -3.053608     0.677372    -2.246608
 C    -3.053258    -0.679072    -2.246595
 C    -2.044851    -1.636500    -1.829334
 C    -2.416211    -2.995821    -2.031049
 C    -1.588633    -4.065030    -1.698680
 C    -0.320339    -3.787532    -1.170793
 C     0.068591    -2.459684    -0.980068
 C    -0.767674    -1.351102    -1.261438
 H     2.082023     0.000792     3.213486
 H     4.526251     0.000974     2.897117
 H     3.684699    -0.000128    -3.760404
 H     1.222645    -0.000330    -3.453366
 H     6.736429     0.000853     0.565818
 H     1.349759     2.063592     2.269728
 H     0.500275     4.241658     3.010295
 H    -1.929148     4.828879     2.666374
 H    -3.458222     3.113195     1.694358
 H    -3.874760     1.166832     0.625421
 H    -3.874466    -1.167281     0.625435
 H    -3.457528    -3.113468     1.694667
 H    -1.928183    -4.828516     2.667303
 H     0.501021    -4.240537     3.011648
 H     1.350080    -2.062460     2.270656
 H     1.059618     2.275780    -0.563922
 H     0.363585     4.595495    -0.897732
 H    -1.925222     5.094892    -1.855986
 H    -3.404823     3.190284    -2.466285
 H    -3.964784     1.146886    -2.640777
 H    -3.964178    -1.149058    -2.640793
 H    -3.403263    -3.192133    -2.466310
 H    -1.923050    -5.096067    -1.855311
 H     0.365173    -4.595607    -0.896238
 H     1.060276    -2.275584    -0.562806
 H     6.397605     0.000424    -2.059792
