  212
scf done: -3353.441781
 C     0.828103    -0.002573     0.010007
 C    -0.828103     0.002573    -0.010007
 C     1.449735     0.324868    -1.386003
 C    -1.449735    -0.324868     1.386003
 C    -1.418234     1.387483    -0.427347
 C     1.418234    -1.387483     0.427347
 C     1.404421     1.053057     1.003946
 C    -1.404421    -1.053057    -1.003946
 C     1.014354     1.088251     2.358534
 C    -1.014354    -1.088251    -2.358534
 C    -1.046384    -1.448000     2.144479
 C     1.046384     1.448000    -2.144479
 C     1.040796    -2.582097    -0.218243
 C    -1.040796     2.582097     0.218243
 C     2.445258     1.913027     0.614142
 C    -2.445258    -1.913027    -0.614142
 C    -2.553990     0.402513     1.851548
 C     2.553990    -0.402513    -1.851548
 C     2.487419    -1.460689     1.337629
 C    -2.487419     1.460689    -1.337629
 C     1.566196     1.997301     3.276273
 C    -1.566196    -1.997301    -3.276273
 C    -1.677326    -1.800961     3.345461
 C     1.677326     1.800961    -3.345461
 C     1.652769    -3.814826     0.066388
 C    -1.652769     3.814826    -0.066388
 C     3.063621     2.804858     1.512160
 C    -3.063621    -2.804858    -1.512160
 C    -3.244478     0.058009     3.032702
 C     3.244478    -0.058009    -3.032702
 C     3.159465    -2.666644     1.617481
 C    -3.159465     2.666644    -1.617481
 C     2.590716     2.860312     2.834654
 C    -2.590716    -2.860312    -2.834654
 C    -2.788471    -1.039246     3.774602
 C     2.788471     1.039246    -3.774602
 C     2.718904    -3.842213     0.986738
 C    -2.718904     3.842213    -0.986738
 H     0.262440     0.387440     2.711732
 H    -0.262440    -0.387440    -2.711732
 H    -0.218610    -2.051706     1.785595
 H     0.218610     2.051706    -1.785595
 H     0.257760    -2.556417    -0.971739
 H    -0.257760     2.556417     0.971739
 H     2.812457     1.874021    -0.411033
 H    -2.812457    -1.874021     0.411033
 H    -2.916201     1.252519     1.274504
 H     2.916201    -1.252519    -1.274504
 H     2.834101    -0.548683     1.823929
 H    -2.834101     0.548683    -1.823929
 C     1.085324     1.953560     4.739265
 C    -1.085324    -1.953560    -4.739265
 C    -1.207410    -3.011527     4.171047
 C     1.207410     3.011527    -4.171047
 C     1.126717    -5.078266    -0.638201
 C    -1.126717     5.078266     0.638201
 C     4.280810     3.608028     1.018414
 C    -4.280810    -3.608028    -1.018414
 C    -4.479278     0.887407     3.421441
 C     4.479278    -0.887407    -3.421441
 C     4.369138    -2.628323     2.567176
 C    -4.369138     2.628323    -2.567176
 H     3.042576     3.562724     3.537657
 H    -3.042576    -3.562724    -3.537657
 H    -3.301852    -1.320191     4.698450
 H     3.301852     1.320191    -4.698450
 H     3.216798    -4.788555     1.204037
 H    -3.216798     4.788555    -1.204037
 C     5.079824    -0.444416    -4.769781
 C    -5.079824     0.444416     4.769781
 C    -4.969935     4.027296    -2.807733
 C     4.969935    -4.027296     2.807733
 C     4.810918     4.583605     2.087196
 C    -4.810918    -4.583605    -2.087196
 C     5.552187    -0.711490    -2.315612
 C    -5.552187     0.711490     2.315612
 C    -5.459055     1.723256    -1.936254
 C     5.459055    -1.723256     1.936254
 C     5.403557     2.596021     0.667538
 C    -5.403557    -2.596021    -0.667538
 C     4.090316    -2.383470    -3.522739
 C    -4.090316     2.383470     3.522739
 C    -3.940974     2.035473    -3.931190
 C     3.940974    -2.035473     3.931190
 C     3.919377     4.420829    -0.249004
 C    -3.919377    -4.420829     0.249004
 C     0.989022     2.587820    -5.644674
 C    -0.989022    -2.587820     5.644674
 C    -1.941227     6.334779     0.273922
 C     1.941227    -6.334779    -0.273922
 C     1.625676     3.139291     5.563068
 C    -1.625676    -3.139291    -5.563068
 C    -0.116220     3.593619    -3.636705
 C     0.116220    -3.593619     3.636705
 C     0.347342     5.297026     0.216652
 C    -0.347342    -5.297026    -0.216652
 C    -0.461365     1.976964     4.802853
 C     0.461365    -1.976964    -4.802853
 C     2.295376     4.112325    -4.106957
 C    -2.295376    -4.112325     4.106957
 C    -1.179392     4.880940     2.172833
 C     1.179392    -4.880940    -2.172833
 C     1.588548     0.631555     5.371239
 C    -1.588548    -0.631555    -5.371239
 H     0.641940     3.451852    -6.240732
 H    -0.641940    -3.451852     6.240732
 H    -1.528518     7.212476     0.802645
 H     1.528518    -7.212476    -0.802645
 H     1.221798     3.095815     6.590343
 H    -1.221798    -3.095815    -6.590343
 H     1.915980     2.210975    -6.110629
 H    -1.915980    -2.210975     6.110629
 H    -3.001933     6.233527     0.567254
 H     3.001933    -6.233527    -0.567254
 H     2.727684     3.121580     5.639540
 H    -2.727684    -3.121580    -5.639540
 H     0.227620     1.791569    -5.716662
 H    -0.227620    -1.791569     5.716662
 H    -1.900820     6.548292    -0.809392
 H     1.900820    -6.548292     0.809392
 H     1.325253     4.106300     5.120843
 H    -1.325253    -4.106300    -5.120843
 H     2.001697     4.984616    -4.720234
 H    -2.001697    -4.984616     4.720234
 H    -0.800216     5.783301     2.687650
 H     0.800216    -5.783301    -2.687650
 H     1.237574     0.540545     6.416267
 H    -1.237574    -0.540545    -6.416267
 H     2.440523     4.455956    -3.067139
 H    -2.440523    -4.455956     3.067139
 H    -0.555783     4.028121     2.489516
 H     0.555783    -4.028121    -2.489516
 H     1.216320    -0.241507     4.806605
 H    -1.216320     0.241507    -4.806605
 H     3.267040     3.742751    -4.479782
 H    -3.267040    -3.742751     4.479782
 H    -2.213238     4.696325     2.515100
 H     2.213238    -4.696325    -2.515100
 H     2.692333     0.588932     5.372808
 H    -2.692333    -0.588932    -5.372808
 H    -0.447033     4.426819    -4.282670
 H     0.447033    -4.426819     4.282670
 H     0.765387     6.188042     0.722110
 H    -0.765387    -6.188042    -0.722110
 H    -0.794345     1.927321     5.856260
 H     0.794345    -1.927321    -5.856260
 H    -0.918128     2.835217    -3.618710
 H     0.918128    -2.835217     3.618710
 H     0.429202     5.450057    -0.874665
 H    -0.429202    -5.450057     0.874665
 H    -0.863269     2.903936     4.358978
 H     0.863269    -2.903936    -4.358978
 H    -0.012802     3.988360    -2.611666
 H     0.012802    -3.988360     2.611666
 H     0.970701     4.428156     0.485390
 H    -0.970701    -4.428156    -0.485390
 H    -0.915384     1.125502     4.270697
 H     0.915384    -1.125502    -4.270697
 H     5.951565    -1.075803    -5.018229
 H    -5.951565     1.075803     5.018229
 H    -5.825797     3.951729    -3.501992
 H     5.825797    -3.951729     3.501992
 H     5.675420     5.142893     1.687164
 H    -5.675420    -5.142893    -1.687164
 H     4.347430    -0.542526    -5.591433
 H    -4.347430     0.542526     5.591433
 H    -4.231086     4.714712    -3.257716
 H     4.231086    -4.714712     3.257716
 H     4.040694     5.319037     2.382053
 H    -4.040694    -5.319037    -2.382053
 H     5.426175     0.604396    -4.738869
 H    -5.426175    -0.604396     4.738869
 H    -5.339052     4.481511    -1.870605
 H     5.339052    -4.481511     1.870605
 H     5.148628     4.052260     2.995021
 H    -5.148628    -4.052260    -2.995021
 H     6.454868    -1.305023    -2.552087
 H    -6.454868     1.305023     2.552087
 H    -6.344642     1.665435    -2.596199
 H     6.344642    -1.665435     2.596199
 H     6.307106     3.126531     0.313243
 H    -6.307106    -3.126531    -0.313243
 H     5.849579     0.348843    -2.224418
 H    -5.849579    -0.348843     2.224418
 H    -5.782419     2.123788    -0.958522
 H     5.782419    -2.123788     0.958522
 H     5.680336     1.994409     1.552186
 H    -5.680336    -1.994409    -1.552186
 H     5.174301    -1.040589    -1.331842
 H    -5.174301     1.040589     1.331842
 H    -5.087233     0.696458    -1.773040
 H     5.087233    -0.696458     1.773040
 H     5.082300     1.898874    -0.126172
 H    -5.082300    -1.898874     0.126172
 H     4.979146    -2.995143    -3.764526
 H    -4.979146     2.995143     3.764526
 H    -4.806315     1.984206    -4.617792
 H     4.806315    -1.984206     4.617792
 H     4.816698     4.935254    -0.639382
 H    -4.816698    -4.935254     0.639382
 H     3.666605    -2.759443    -2.575619
 H    -3.666605     2.759443     2.575619
 H    -3.535268     1.016000    -3.821131
 H     3.535268    -1.016000     3.821131
 H     3.524902     3.775921    -1.052930
 H    -3.524902    -3.775921     1.052930
 H     3.336189    -2.540171    -4.313811
 H    -3.336189     2.540171     4.313811
 H    -3.161832     2.659210    -4.404383
 H     3.161832    -2.659210     4.404383
 H     3.156015     5.184984    -0.022575
 H    -3.156015    -5.184984     0.022575
