   66
scf done: -2159.195133
Cl    -2.002044     3.080427    -0.816271
Cl    -1.931633    -3.072998     0.919298
 C    -0.717636    -0.684368     0.194621
 C     0.811487    -0.702339     0.404803
 C     0.786136     0.737924    -0.465903
 C    -0.736931     0.679037    -0.238617
 C    -1.924495     1.366943    -0.388350
 C    -3.172112     0.675432    -0.183944
 C    -4.432732     1.318175    -0.345105
 C    -5.623768     0.629715    -0.173100
 C    -5.606551    -0.743047     0.171796
 C    -4.398694    -1.401611     0.343110
 C    -3.154324    -0.728820     0.177288
 C    -1.889878    -1.387889     0.384893
 C     1.627251    -1.844949    -0.182232
 C     1.005086    -2.972315    -0.752810
 C     1.751747    -4.048063    -1.256836
 C     3.152121    -4.024353    -1.204071
 C     3.792706    -2.904779    -0.651253
 C     3.039701    -1.832739    -0.152237
 C     1.058508    -0.599457     2.018515
 C    -0.047909     0.218477     2.729869
 C     1.012839    -2.042792     2.581550
 C     2.401805     0.009062     2.492893
 C     1.588162     1.881335     0.131529
 C     0.963366     2.951345     0.800928
 C     1.709190     3.993317     1.373164
 C     3.108424     3.992834     1.286403
 C     3.749841     2.930338     0.630590
 C     2.999642     1.889964     0.067592
 C     1.011754     0.641317    -2.074775
 C     0.086617    -0.402552    -2.747742
 C     0.650469     2.019965    -2.679873
 C     2.458000     0.339152    -2.539320
 H    -4.446918     2.376147    -0.616881
 H    -6.577284     1.151353    -0.306580
 H    -6.546640    -1.288427     0.305616
 H    -4.387204    -2.459478     0.615353
 H    -0.083618    -3.012421    -0.807543
 H     1.229303    -4.906785    -1.692616
 H     3.738554    -4.863253    -1.593920
 H     4.886678    -2.857238    -0.613545
 H     3.566201    -0.962899     0.244049
 H    -1.045588    -0.238364     2.633155
 H     0.194346     0.266375     3.806898
 H    -0.100598     1.254203     2.359790
 H     1.890528    -2.631313     2.267560
 H     1.011938    -1.993939     3.685564
 H     0.110315    -2.586454     2.268902
 H     2.450471     1.097618     2.365255
 H     2.489305    -0.200111     3.575232
 H     3.282732    -0.444834     2.016831
 H    -0.124225     2.971804     0.883058
 H     1.187638     4.807001     1.889114
 H     3.693459     4.805158     1.730968
 H     4.843397     2.899576     0.570027
 H     3.527642     1.051581    -0.388174
 H     0.333921    -1.434253    -2.457454
 H    -0.979444    -0.222141    -2.535915
 H     0.222592    -0.327297    -3.841782
 H    -0.423469     2.239158    -2.599164
 H     1.209074     2.840235    -2.198770
 H     0.909251     2.016231    -3.754394
 H     2.430882     0.172233    -3.631476
 H     3.133513     1.191974    -2.368405
 H     2.886842    -0.563270    -2.082465
