   66
scf done: -2159.180214
Cl     2.900317     2.579385     0.599206
Cl     0.708990    -3.236336    -0.707079
 C     0.440879    -0.524738    -0.364181
 C    -1.014079    -0.239607     0.021219
 C    -0.485959     1.411787     0.075445
 C     0.913499     0.780387    -0.055432
 C     2.267619     1.032249     0.035916
 C     3.206817    -0.012528    -0.286042
 C     4.614722     0.201045    -0.280007
 C     5.501952    -0.818666    -0.589384
 C     5.019199    -2.110113    -0.914903
 C     3.655649    -2.359865    -0.925243
 C     2.713627    -1.337425    -0.619804
 C     1.296561    -1.580398    -0.594020
 C    -1.278941    -1.008507     1.355721
 C    -0.205824    -1.451605     2.165079
 C    -0.419162    -2.200251     3.329289
 C    -1.720092    -2.539618     3.728339
 C    -2.797077    -2.124851     2.934575
 C    -2.577171    -1.383902     1.763268
 C    -2.130093    -0.585146    -0.957080
 C    -1.944196    -1.537391    -1.976993
 C    -2.985094    -1.875243    -2.853260
 C    -4.244481    -1.269529    -2.727934
 C    -4.449650    -0.326365    -1.709964
 C    -3.404977     0.006269    -0.834647
 C    -0.822623     2.215135     1.415333
 C    -2.331783     2.130321     1.750914
 C    -0.450982     3.725161     1.399714
 C    -0.051717     1.651804     2.640613
 C    -0.730889     2.217822    -1.324357
 C    -0.643778     1.332260    -2.603282
 C    -2.085490     2.958172    -1.425125
 C     0.413089     3.251759    -1.541765
 H     4.989149     1.196909    -0.030231
 H     6.579104    -0.621485    -0.582600
 H     5.721981    -2.913107    -1.160647
 H     3.278712    -3.355220    -1.174407
 H     0.821233    -1.194859     1.897690
 H     0.443733    -2.520271     3.923532
 H    -1.889397    -3.128834     4.636047
 H    -3.823211    -2.390164     3.212349
 H    -3.441305    -1.122433     1.150055
 H    -0.964875    -1.998057    -2.111842
 H    -2.804075    -2.611970    -3.643745
 H    -5.056681    -1.528813    -3.415554
 H    -5.425185     0.158682    -1.593735
 H    -3.582565     0.742365    -0.047477
 H    -2.657787     1.090002     1.901242
 H    -2.965795     2.598961     0.981992
 H    -2.517321     2.666499     2.699605
 H    -0.948872     4.304749     0.610052
 H    -0.771232     4.156444     2.365705
 H     0.636462     3.879538     1.321014
 H    -0.169518     2.354314     3.485453
 H     1.028231     1.555495     2.442301
 H    -0.431985     0.679159     2.972763
 H     0.183693     0.604895    -2.565534
 H    -1.572971     0.792938    -2.821629
 H    -0.447657     2.001055    -3.460769
 H    -2.936613     2.265874    -1.359079
 H    -2.138848     3.439452    -2.419174
 H    -2.217352     3.752996    -0.676334
 H     0.143463     3.882827    -2.407859
 H     0.604273     3.917378    -0.694585
 H     1.357655     2.742317    -1.792791
