   62
scf done: -1982.067907
 I     3.548707     1.533369    -0.350739
 I    -3.549834     1.530968     0.351106
 C     0.848279    -1.020304    -0.215064
 C    -0.847623    -1.020974     0.214824
 C    -0.696284     0.493383     0.125282
 C    -1.426832     1.656752     0.173999
 C    -0.729669     2.912555     0.074111
 C    -1.398857     4.167493     0.135957
 C    -0.706840     5.366971     0.068051
 C     0.703155     5.367468    -0.066820
 C     1.395990     4.168471    -0.134893
 C     0.727657     2.913068    -0.073176
 C     1.425667     1.657757    -0.173309
 C     0.695921     0.493886    -0.124817
 C     1.030584    -1.559504    -1.618368
 C     1.481493    -0.747128    -2.673936
 C     1.575060    -1.252861    -3.980502
 C     1.213151    -2.579736    -4.252544
 C     0.760441    -3.401032    -3.206721
 C     0.669927    -2.894099    -1.905360
 C     1.800835    -1.591771     0.822693
 C     1.902023    -0.964729     2.085199
 C     2.737433    -1.479271     3.081746
 C     3.506359    -2.628550     2.834580
 C     3.436822    -3.244178     1.576668
 C     2.595230    -2.728651     0.578617
 C    -1.799897    -1.592624    -0.823101
 C    -1.901560    -0.965181    -2.085377
 C    -2.736905    -1.479727    -3.081985
 C    -3.505333    -2.629405    -2.835125
 C    -3.435241    -3.245504    -1.577499
 C    -2.593678    -2.730002    -0.579388
 C    -1.029425    -1.560966     1.617902
 C    -0.667618    -2.895368     1.904292
 C    -0.757383    -3.402849     3.205479
 C    -1.210426    -2.582295     4.251749
 C    -1.573469    -1.255603     3.980311
 C    -1.480612    -0.749306     2.673915
 H    -2.487979     4.165409     0.246802
 H    -1.253959     6.313990     0.120912
 H     1.249626     6.314868    -0.119578
 H     2.485108     4.167142    -0.245777
 H     1.749999     0.294673    -2.477193
 H     1.925614    -0.600077    -4.787467
 H     1.275831    -2.971474    -5.273590
 H     0.458906    -4.434694    -3.407185
 H     0.276225    -3.529265    -1.105680
 H     1.304623    -0.072571     2.292947
 H     2.787089    -0.979832     4.055222
 H     4.161717    -3.033446     3.613479
 H     4.045875    -4.129470     1.362166
 H     2.566777    -3.210267    -0.402253
 H    -1.304499    -0.072750    -2.292905
 H    -2.786919    -0.980002    -4.055294
 H    -4.160729    -3.034200    -3.614047
 H    -4.043806    -4.131187    -1.363249
 H    -2.564828    -3.212065     0.401251
 H    -0.273572    -3.529891     1.104263
 H    -0.454979    -4.436347     3.405471
 H    -1.272460    -2.974475     5.272664
 H    -1.924291    -0.603386     4.787618
 H    -1.749915     0.292367     2.477631
