   58
scf done: -1979.689468
 I    -1.712307     3.560147    -0.097307
 I    -1.711971    -3.560312     0.097191
 C     0.787818     0.882341     0.029320
 C     0.787877    -0.882331    -0.029539
 C    -0.709986    -0.707373     0.023167
 C    -1.872010    -1.438204     0.047014
 C    -3.126884    -0.732683     0.025923
 C    -4.381584    -1.404166     0.049978
 C    -5.580548    -0.708157     0.025010
 C    -5.580603     0.707624    -0.025904
 C    -4.381702     1.403746    -0.050746
 C    -3.126938     0.732377    -0.026583
 C    -1.872131     1.438000    -0.047585
 C    -0.710032     0.707297    -0.023835
 C     1.402201     1.427622     1.294317
 C     0.926889     1.392163     2.605077
 C     1.728389     1.931180     3.630343
 C     2.981767     2.495038     3.334503
 C     3.441093     2.573785     2.007006
 C     2.637314     2.055668     0.983161
 C     2.757994     2.127428    -0.482284
 C     3.722920     2.732048    -1.298284
 C     3.499304     2.785761    -2.685853
 C     2.319361     2.263801    -3.243773
 C     1.355808     1.639065    -2.428879
 C     1.592870     1.546860    -1.056359
 C     1.592620    -1.546721     1.056452
 C     1.354985    -1.639070     2.428859
 C     2.318242    -2.263810     3.244106
 C     3.498459    -2.785635     2.686639
 C     3.722673    -2.731747     1.299173
 C     2.758057    -2.127097     0.482826
 C     2.637960    -2.055307    -0.982671
 C     3.442268    -2.573170    -2.006225
 C     2.983441    -2.494467    -3.333900
 C     1.730038    -1.930914    -3.630207
 C     0.928011    -1.392129    -2.605229
 C     1.402834    -1.427511    -1.294294
 H    -4.379248    -2.498404     0.088911
 H    -6.528077    -1.256547     0.044893
 H    -6.528174     1.255939    -0.045905
 H    -4.379489     2.497985    -0.089668
 H    -0.061157     0.976222     2.828862
 H     1.368887     1.914887     4.664648
 H     3.596781     2.902720     4.144157
 H     4.397529     3.057515     1.779425
 H     4.624388     3.178215    -0.863737
 H     4.242194     3.261020    -3.335705
 H     2.144091     2.345675    -4.321624
 H     0.430461     1.253121    -2.863893
 H     0.429417    -1.253246     2.863527
 H     2.142525    -2.345794     4.321875
 H     4.241084    -3.260940     3.336759
 H     4.624358    -3.177796     0.864957
 H     4.398755    -3.056642    -1.778302
 H     3.598875    -2.901950    -4.143335
 H     1.370940    -1.914669    -4.664651
 H    -0.060055    -0.976411    -2.829375
