   54
scf done: -1307.714775
 C     0.000081     0.646372     0.872373
 C    -0.000034     0.646092    -0.872334
 C    -0.000093    -1.932151     0.684367
 C    -0.000164    -1.932404    -0.683628
 C    -1.236122    -0.023656     1.440952
 C    -2.349409     0.646512     1.958231
 H    -2.358100     1.741616     1.985489
 C    -3.454099    -0.090937     2.422999
 H    -4.324165     0.435197     2.830711
 C    -3.449706    -1.491919     2.358254
 H    -4.315861    -2.059474     2.715599
 C    -2.340208    -2.174677     1.824947
 H    -2.339118    -3.267077     1.748594
 C    -1.239334    -1.445655     1.370411
 C     1.236229    -0.023810     1.440860
 C     2.349623     0.646213     1.958093
 H     2.358459     1.741315     1.985345
 C     3.454233    -0.091379     2.422828
 H     4.324386     0.434645     2.830495
 C     3.449649    -1.492359     2.358094
 H     4.315734    -2.060032     2.715422
 C     2.340041    -2.174973     1.824830
 H     2.338808    -3.267374     1.748484
 C     1.239250    -1.445813     1.370320
 C    -1.236240    -0.024123    -1.440696
 C    -2.349473     0.645885    -1.958283
 H    -2.358194     1.740981    -1.985796
 C    -3.454088    -0.091707    -2.423016
 H    -4.324103     0.434311    -2.830989
 C    -3.449660    -1.492669    -2.357934
 H    -4.315749    -2.060341    -2.715254
 C    -2.340213    -2.175268    -1.824304
 H    -2.339112    -3.267650    -1.747687
 C    -1.239431    -1.446109    -1.369778
 C     1.236074    -0.024250    -1.440794
 C     2.349367     0.645631    -1.958412
 H     2.358216     1.740726    -1.985927
 C     3.453886    -0.092088    -2.423178
 H     4.323949     0.433835    -2.831170
 C     3.449305    -1.493048    -2.358097
 H     4.315314    -2.060818    -2.715454
 C     2.339797    -2.175522    -1.824431
 H     2.338581    -3.267904    -1.747800
 C     1.239112    -1.446237    -1.369877
 C     0.000164     2.154337     0.701058
 C     0.000382     3.336166     1.444924
 H     0.000479     3.346115     2.540297
 C     0.000454     4.538859     0.704181
 H     0.000612     5.497230     1.235347
 C     0.000338     4.538635    -0.705371
 H     0.000413     5.496838    -1.236837
 C     0.000138     3.335703    -1.445730
 H     0.000060     3.345282    -2.541104
 C     0.000052     2.154113    -0.701488
