   23
scf done:  -739.998286
 C     7.890040     5.697139     9.893961
 C     8.077582     6.988210    10.383377
 C     7.050009     7.933974    10.242889
 C     5.851672     7.557869     9.610421
 C     5.709129     6.258062     9.137586
 N     6.721058     5.354325     9.284665
 C     6.530357     3.981481     8.767863
 C     7.569007     2.835192     8.850606
 C     5.416330     2.990581     9.216583
 C     6.245995     3.602659     7.284543
 C     6.291773     2.286914     8.128460
 I     6.025452     0.311959     7.388624
 H     8.640679     4.907972     9.965490
 H     9.023896     7.240107    10.868552
 H     7.179299     8.952291    10.620926
 H     5.028115     8.264652     9.481574
 H     4.810871     5.891472     8.636659
 H     7.773728     2.412419     9.846999
 H     8.470542     2.926624     8.224260
 H     4.382284     3.230323     8.922350
 H     5.492049     2.592416    10.240037
 H     7.068586     3.755401     6.569198
 H     5.261348     3.878859     6.875277
