   72
scf done: -1219.503420
 N     1.598163     0.529651     0.274045
 N    -1.624216     0.609716     0.319378
 C     4.122556    -3.112786     0.456639
 H     3.904134    -4.122453     0.827154
 C     3.063251    -2.311706    -0.001057
 C    -3.338526    -0.951224    -0.475907
 C     3.337121    -1.006506    -0.477672
 C     1.029294     1.794624     0.189568
 C     2.196034    -0.116231    -0.919486
 H     2.547428     0.655278    -1.626305
 H     1.415090    -0.700513    -1.438867
 C     5.450084    -2.649768     0.458988
 B    -1.415143     3.127543    -0.656502
 C    -0.977369     1.820030     0.263049
 B     0.051244     2.168649    -1.135548
 C    -5.658219    -1.106233     0.248596
 H    -6.598841    -0.608760     0.517673
 C     4.663534    -0.508615    -0.458568
 C    -3.244564    -2.363027    -0.444425
 C     5.696443    -1.342678     0.004702
 H     6.723257    -0.956008     0.017999
 C    -2.141907    -0.100974    -0.857658
 H    -1.349763    -0.710953    -1.330557
 H    -2.431635     0.671439    -1.590502
 B     1.521329     3.129756    -0.715865
 B     0.039287     2.212973     1.565572
 C    -4.560009    -0.316087    -0.126132
 B     0.051509     3.946067    -1.253834
 C    -4.370375    -3.117145    -0.063551
 H    -4.291413    -4.211402    -0.039951
 C    -5.586419    -2.510518     0.286428
 B    -1.402178     3.204264     1.132227
 B     1.526694     3.118896     1.067776
 C     6.582827    -3.538076     0.923744
 H     6.977690    -4.149232     0.089542
 H     6.252494    -4.237365     1.711514
 H     7.424691    -2.945238     1.321148
 C     1.645166    -2.841853     0.029529
 H     1.585423    -3.783342     0.600330
 H     1.263703    -3.047414    -0.988869
 H     0.955768    -2.112858     0.493108
 B    -0.806252     4.582194     0.193311
 C    -1.966541    -3.090540    -0.812991
 H    -2.080827    -4.176809    -0.660982
 H    -1.108620    -2.760028    -0.201479
 H    -1.687757    -2.933741    -1.871894
 B     0.962979     4.558928     0.174550
 C    -4.699332     1.189619    -0.152381
 H    -5.729512     1.493322     0.096617
 H    -4.458663     1.607058    -1.147976
 H    -4.012510     1.675871     0.562794
 B     0.089711     3.998974     1.639076
 C    -6.792525    -3.336879     0.675140
 H    -7.273432    -2.944109     1.589018
 H    -6.518908    -4.389827     0.858675
 H    -7.558953    -3.325914    -0.122899
 C     4.984606     0.900435    -0.912981
 H     6.049547     1.131657    -0.745615
 H     4.387054     1.657466    -0.373143
 H     4.779602     1.043284    -1.990558
 H     0.006672     1.396307    -2.045108
 H    -2.396720     3.104721     1.788468
 H     0.059371     1.447343     2.486542
 H     1.616880     5.561830     0.157675
 H    -2.412625     3.030933    -1.308313
 H     2.527721     2.976445     1.710284
 H    -1.433273     5.601913     0.169003
 H     0.019952     4.509043    -2.309980
 H     2.512019     2.992206    -1.372909
 H     0.130299     4.589680     2.679684
 H     2.158504     0.398203     1.119245
 H    -1.478175     0.052010     1.160213
