   55
scf done: -1021.675313
 B    -2.322066    -0.068757    -1.467426
 H    -1.557136    -0.171635    -2.375764
 B    -3.108953     1.428424    -0.987156
 H    -2.941751     2.402685    -1.657347
 B    -3.003789     1.566298     0.800685
 H    -2.813727     2.631664     1.306069
 B    -2.196458     0.141278     1.474741
 H    -1.354221     0.184926     2.314794
 B    -3.085090    -1.315823     1.053577
 H    -2.926078    -2.301466     1.710277
 B    -3.146205    -1.448213    -0.740586
 H    -3.035809    -2.519221    -1.258451
 B    -4.064034    -0.033385    -1.372668
 H    -4.710705    -0.114028    -2.376467
 B    -3.931204     0.201115     1.516661
 H    -4.493275     0.312739     2.567338
 B    -4.542550    -0.804794     0.166790
 H    -5.558958    -1.429012     0.262682
 B    -4.507480     0.989265     0.019023
 H    -5.496510     1.662723     0.018845
 N    -0.374818     1.198669    -0.222345
 N    -0.415548    -1.183947     0.089758
 C    -1.750982     0.837925    -0.097752
 C    -1.788857    -0.785918     0.066176
 C     0.385516    -0.042846    -0.454398
 H     1.363369     0.012785     0.048483
 H     0.559509    -0.192742    -1.541353
 C    -0.092791    -2.468822    -0.540769
 H    -0.254869    -2.435475    -1.642766
 H    -0.792180    -3.219256    -0.130049
 C     1.343734    -2.849067    -0.235581
 C     1.826114    -2.773297     1.086233
 H     1.152572    -2.422758     1.876131
 C     3.151484    -3.122433     1.377708
 H     3.517491    -3.058445     2.408393
 C     4.009458    -3.554326     0.351372
 H     5.045761    -3.826368     0.579337
 C     3.535548    -3.629200    -0.967081
 H     4.200786    -3.957093    -1.773243
 C     2.209051    -3.272345    -1.258658
 H     1.841486    -3.319857    -2.290779
 C     0.179652     2.102940     0.802395
 H     0.280117     1.603753     1.789151
 H    -0.549408     2.922514     0.926457
 C     1.519954     2.651973     0.356796
 C     2.614481     2.660831     1.239032
 H     2.495855     2.249222     2.248731
 C     3.851135     3.189909     0.835678
 H     4.696526     3.190348     1.532311
 C     4.004039     3.706588    -0.459633
 H     4.969200     4.115075    -0.778244
 C     2.916079     3.691835    -1.349739
 H     3.031602     4.090273    -2.363747
 C     1.681404     3.167703    -0.944359
 H     0.831940     3.139847    -1.635413
