   66
scf done: -2159.171205
Cl    -1.909482     2.977235    -1.119678
Cl    -1.909534    -2.977190     1.119750
 C    -0.710882    -0.658870     0.258510
 C     0.812520    -0.716992     0.448571
 C     0.812542     0.716941    -0.448571
 C    -0.710877     0.658869    -0.258491
 C    -1.879862     1.334186    -0.487610
 C    -3.131456     0.680251    -0.237355
 C    -4.378947     1.319305    -0.457644
 C    -5.569135     0.666266    -0.230517
 C    -5.569141    -0.666304     0.230351
 C    -4.378952    -1.319301     0.457593
 C    -3.131466    -0.680207     0.237400
 C    -1.879889    -1.334140     0.487686
 C     1.547200    -1.882456    -0.191129
 C     0.858599    -2.882496    -0.887208
 C     1.531628    -3.944113    -1.494480
 C     2.919273    -4.036686    -1.410962
 C     3.622716    -3.052547    -0.713945
 C     2.944807    -1.993540    -0.117135
 C     1.122038    -0.629119     2.043747
 C    -0.010181     0.087371     2.814675
 C     1.200587    -2.073153     2.595469
 C     2.428323     0.079997     2.476847
 C     1.547192     1.882415     0.191163
 C     0.858579     2.882444     0.887218
 C     1.531611     3.944109     1.494423
 C     2.919240     4.036733     1.410839
 C     3.622710     3.052571     0.713862
 C     2.944818     1.993526     0.117137
 C     1.122035     0.629091    -2.043710
 C    -0.010237    -0.087290    -2.814673
 C     1.200714     2.073142    -2.595370
 C     2.428218    -0.080125    -2.476845
 H    -4.382731     2.341544    -0.814452
 H    -6.509100     1.180281    -0.407948
 H    -6.509111    -1.180345     0.407680
 H    -4.382713    -2.341539     0.814407
 H    -0.219133    -2.835356    -0.966039
 H     0.963384    -4.698616    -2.031255
 H     3.446646    -4.861378    -1.881674
 H     4.705811    -3.102136    -0.643096
 H     3.521174    -1.227126     0.382261
 H    -0.947152    -0.473739     2.798986
 H     0.295345     0.189145     3.862143
 H    -0.202701     1.090972     2.431830
 H     2.125634    -2.572608     2.298652
 H     1.176217    -2.031875     3.690437
 H     0.365343    -2.690436     2.265413
 H     2.331106     1.163822     2.489172
 H     2.650182    -0.238901     3.502433
 H     3.298780    -0.172720     1.872532
 H    -0.219145     2.835291     0.966109
 H     0.963371     4.698605     2.031215
 H     3.446583     4.861484     1.881481
 H     4.705799     3.102221     0.642976
 H     3.521137     1.227053    -0.382180
 H    -0.202805    -1.090904    -2.431945
 H    -0.947209     0.473863    -2.798897
 H     0.295242    -0.188956    -3.862155
 H     0.365543     2.690481    -2.265230
 H     2.125817     2.572506    -2.298609
 H     1.176265     2.031945    -3.690346
 H     2.649982     0.238638    -3.502477
 H     3.298741     0.172726    -1.872661
 H     2.331008    -1.163974    -2.489073
