   74
scf done: -1244.906864
 C    -0.624280    -0.029590    -0.124098
 C    -0.964327    -1.540537    -0.414848
 C     1.036723     0.186891     0.178696
 C    -2.395062    -1.739137    -0.968691
 C     1.204010     1.317217     1.231074
 C    -1.699992     0.383084     1.003524
 C     1.829460     0.600409    -1.122129
 C    -1.748953     1.891631     1.352433
 C    -2.448887     0.579794    -1.871322
 C     2.749374    -1.721345    -1.565932
 C    -1.020408     0.871128    -1.354390
 C    -3.161251     0.123036     0.444751
 C    -1.560908    -0.505293     2.255812
 C     3.275824     1.066420    -0.782804
 C     3.358152    -0.582017     1.065600
 C    -0.958141     2.381492    -1.029434
 C    -3.410561    -1.349367     0.118668
 C     1.900055    -1.035565     0.720257
 C    -3.464398     0.982538    -0.789948
 C     4.080370    -0.117129    -0.216005
 C     2.645096     1.737017     1.528647
 C     1.936985    -0.550789    -2.145193
 C     4.170544    -1.243782    -1.247506
 C     2.093800    -2.214054    -0.265547
 C    -1.834952    -1.986261     1.925098
 C     3.396363     0.538043     2.103289
 C    -1.958321     2.747188     0.083782
 C     3.288336     2.218961     0.224324
 C    -2.610278    -0.897920    -2.226671
 C    -3.367599     2.472458    -0.455228
 C    -0.865109    -2.451045     0.833287
 C    -3.259706    -2.177305     1.396184
 H    -0.352796     0.661201    -2.191245
 H     2.783594    -2.542263    -2.293588
 H     2.622115     2.556232     2.259551
 H     2.921669     0.211816     3.038901
 H    -1.882006    -1.182926    -2.998867
 H     0.135783    -2.504375     1.244156
 H    -4.480203     0.747259    -1.138839
 H    -2.608000     1.194361    -2.768820
 H     0.947719    -0.897338    -2.457804
 H    -1.226751     2.937206    -1.938724
 H     4.672133    -0.883604    -2.156270
 H     4.769902    -2.075446    -0.852736
 H    -3.842820     0.417031     1.256633
 H    -2.613244     2.042902     2.014854
 H    -4.125500     2.739984     0.293363
 H     4.320355     2.553014     0.397151
 H     0.050476     2.705578    -0.772961
 H     1.350337     1.453304    -1.602473
 H     2.732109     3.080744    -0.170172
 H    -3.610232    -1.081504    -2.643019
 H    -0.290799    -1.904766    -1.190581
 H     2.433070    -0.173370    -3.050251
 H     1.469960    -1.389883     1.661702
 H     3.738024     1.396543    -1.724315
 H    -3.444374    -3.241531     1.196398
 H    -4.002820    -1.851428     2.136941
 H    -0.561755    -0.408477     2.694670
 H    -2.509082    -2.804419    -1.214846
 H     4.437586     0.796535     2.340391
 H     0.737936     1.003240     2.168512
 H    -1.686834    -2.590933     2.829192
 H    -3.564180     3.079436    -1.349665
 H     0.682967     2.208532     0.898825
 H     2.754691    -2.949532     0.214070
 H     1.175706    -2.747075    -0.492560
 H    -0.891049     2.228620     1.926246
 H    -1.853328     3.809765     0.337757
 H    -4.430065    -1.458585    -0.278628
 H     3.873514    -1.465553     1.467509
 H    -1.123942    -3.474657     0.527896
 H    -2.272396    -0.158950     3.019125
 H     5.090763     0.226282     0.048450
