   28
scf done:  -442.868307
 C    -0.792745     0.951287    -0.057452
 N    -2.046477     1.556612    -0.079223
 B    -0.429030     0.024313     1.331830
 C    -0.825337    -0.907836    -0.045109
 N    -2.099421    -1.469220    -0.058536
 B     0.481761    -1.444797     0.862856
 B     1.342680    -0.006279     1.422934
 B     1.931363    -0.908620    -0.006697
 B     1.962094     0.856175    -0.018551
 B     0.532646     1.454037     0.843655
 B     0.556909     1.441816    -0.928421
 B    -0.390739     0.004864    -1.422892
 B     0.506656    -1.457391    -0.909078
 B     1.382736    -0.026304    -1.464391
 H     1.973176    -0.043115    -2.493442
 H     0.305786    -2.434462     1.491860
 H     0.347536    -2.456085    -1.528190
 H    -1.218203     0.044222     2.214516
 H    -1.154453     0.012524    -2.327894
 H     2.972432     1.478274    -0.008388
 H     0.433630     2.436830    -1.561466
 H     0.391766     2.457737     1.459109
 H     2.919262    -1.565583     0.012406
 H     1.904010    -0.009201     2.468264
 H    -2.304524    -1.997514    -0.897891
 H    -2.327277    -1.985704     0.782292
 H    -2.256859     2.091339     0.754720
 H    -2.232683     2.080832    -0.925493
