   54
scf done:  -983.639860
 B     1.185456    -2.010756     0.000000
 B     0.785288    -2.986289     1.457577
 B    -0.982841    -3.129165     1.453666
 B    -1.523241    -2.230089     0.000000
 B     1.405717    -3.771584     0.000000
 B     0.013051    -4.478763     0.880179
 B    -1.469785    -4.008043     0.000000
 C    -0.202271    -1.731922     0.966396
 N    -0.350154    -0.487291     1.558617
 C     0.698337     0.048832     2.429454
 H     1.628418     0.071552     1.851202
 H     0.878830    -0.603011     3.296014
 C     0.337359     1.438707     2.901904
 C     0.606368     1.828023     4.217769
 H     1.052980     1.115278     4.906732
 C     0.305129     3.119979     4.651044
 H     0.518906     3.408635     5.676235
 C    -0.279918     4.034016     3.773703
 H    -0.520432     5.037815     4.111993
 C    -0.560437     3.649417     2.460902
 H    -1.018411     4.354249     1.772334
 C    -0.252109     2.360512     2.029057
 H    -0.472475     2.050931     1.013556
 H     2.038964    -1.192575     0.000000
 H    -2.462112    -4.658717     0.000000
 H     1.416400    -2.815394     2.445298
 H    -2.478851    -1.528095     0.000000
 H     2.486420    -4.261359     0.000000
 H    -1.628288    -3.036952     2.444373
 H     0.097797    -5.476299     1.517556
 H    -1.282447    -0.338511     1.928146
 B     0.785288    -2.986289    -1.457577
 B    -0.982841    -3.129165    -1.453666
 B     0.013051    -4.478763    -0.880179
 C    -0.202271    -1.731922    -0.966396
 N    -0.350154    -0.487291    -1.558617
 C     0.698337     0.048832    -2.429454
 H     1.628418     0.071552    -1.851202
 H     0.878830    -0.603011    -3.296014
 C     0.337359     1.438707    -2.901904
 C     0.606368     1.828023    -4.217769
 H     1.052980     1.115278    -4.906732
 C     0.305129     3.119979    -4.651044
 H     0.518906     3.408635    -5.676235
 C    -0.279918     4.034016    -3.773703
 H    -0.520432     5.037815    -4.111993
 C    -0.560437     3.649417    -2.460902
 H    -1.018411     4.354249    -1.772334
 C    -0.252109     2.360512    -2.029057
 H    -0.472475     2.050931    -1.013556
 H     1.416400    -2.815394    -2.445298
 H    -1.628288    -3.036952    -2.444373
 H     0.097797    -5.476299    -1.517556
 H    -1.282447    -0.338511    -1.928146
