   55
scf done: -1021.732393
 B    -2.299183    -0.048556    -1.463784
 H    -1.533056    -0.129618    -2.358291
 B    -3.089690     1.429651    -0.961260
 H    -2.925588     2.408778    -1.606026
 B    -2.998113     1.536953     0.822184
 H    -2.816181     2.585957     1.338823
 B    -2.190791     0.112847     1.474827
 H    -1.359832     0.147109     2.310689
 B    -3.063680    -1.335326     1.021992
 H    -2.902749    -2.323602     1.654550
 B    -3.116208    -1.437572    -0.766406
 H    -2.998817    -2.490886    -1.293776
 B    -4.032821    -0.023684    -1.377844
 H    -4.669894    -0.088729    -2.376562
 B    -3.918362     0.160697     1.506575
 H    -4.483978     0.249270     2.545706
 B    -4.513798    -0.820489     0.140742
 H    -5.519442    -1.444998     0.218842
 B    -4.486626     0.969513     0.023825
 H    -5.470925     1.631669     0.029094
 N    -0.372896     1.196059    -0.191968
 N    -0.405637    -1.177967     0.074776
 C    -1.742693     0.827401    -0.076708
 C    -1.773442    -0.779829     0.053165
 C     0.403680    -0.031573    -0.415662
 H     1.352516     0.019920     0.120534
 H     0.619879    -0.157774    -1.487241
 C    -0.076656    -2.451249    -0.561461
 H    -0.220926    -2.404817    -1.654465
 H    -0.777167    -3.198724    -0.174305
 C     1.348441    -2.848349    -0.244114
 C     1.812580    -2.805990     1.076976
 H     1.141156    -2.466477     1.860411
 C     3.121192    -3.178436     1.376842
 H     3.471471    -3.140653     2.404570
 C     3.981489    -3.600453     0.359341
 H     5.001883    -3.890135     0.593425
 C     3.526157    -3.642705    -0.958133
 H     4.190764    -3.963149    -1.755369
 C     2.215906    -3.263122    -1.257315
 H     1.865230    -3.287400    -2.286153
 C     0.167883     2.127536     0.804699
 H     0.268829     1.658027     1.794627
 H    -0.558895     2.938852     0.905847
 C     1.502480     2.678540     0.355821
 C     2.587391     2.710393     1.235873
 H     2.471360     2.317058     2.242942
 C     3.814528     3.240528     0.831487
 H     4.649993     3.258598     1.525522
 C     3.967233     3.736437    -0.462843
 H     4.921964     4.144993    -0.781447
 C     2.888388     3.700291    -1.350790
 H     3.002946     4.082155    -2.361410
 C     1.663849     3.174676    -0.944124
 H     0.825130     3.133166    -1.632781
