   50
scf done:  -981.210748
 B     5.738392     3.513049     3.605285
 B     4.203689     4.408823     3.622562
 B     3.594169     4.408810     5.288021
 B     5.743564     5.278498     3.591148
 B     4.411825     5.839022     4.643015
 C     4.442800     3.075064     4.654333
 C     2.714877     1.663657     4.021951
 H     2.082234     2.528807     3.790461
 N     3.909894     1.792920     4.459288
 C     2.114465     0.347156     3.802183
 C     0.799897     0.266208     3.321406
 H     0.247055     1.180294     3.119318
 C     0.205696    -0.975667     3.103970
 H    -0.812702    -1.032571     2.731513
 C     0.923455    -2.143470     3.366333
 H     0.462340    -3.112447     3.197615
 C     2.236608    -2.069231     3.846563
 H     2.791467    -2.980691     4.049344
 C     2.831461    -0.832651     4.064250
 H     3.847370    -0.748905     4.435777
 H     2.441852     4.243454     5.508521
 H     6.041245     2.728663     2.777811
 H     3.465912     4.243456     2.710354
 H     6.099285     5.858677     2.619283
 H     3.807347     6.835839     4.421823
 B     4.755121     3.513046     6.291895
 B     6.289821     4.408824     6.274619
 B     6.899341     4.408814     4.609160
 B     4.749944     5.278495     6.306034
 B     6.081682     5.839024     5.254168
 C     6.050714     3.075065     5.242846
 C     7.778639     1.663661     5.875227
 H     8.411278     2.528812     6.106724
 N     6.583622     1.792922     5.437889
 C     8.379050     0.347161     6.095004
 C     9.693614     0.266214     6.575790
 H    10.246455     1.180301     6.777878
 C    10.287814    -0.975660     6.793234
 H    11.306211    -1.032562     7.165697
 C     9.570057    -2.143464     6.530871
 H    10.031171    -3.112440     6.699596
 C     8.256907    -2.069227     6.050633
 H     7.702049    -2.980688     5.847852
 C     7.662056    -0.832647     5.832938
 H     6.646149    -0.748903     5.461404
 H     8.051658     4.243460     4.388659
 H     4.452269     2.728658     7.119367
 H     7.027598     4.243457     7.186827
 H     4.394222     5.858672     7.277899
 H     6.686158     6.835842     5.475361
