   66
scf done: -1539.136973
 C    -0.000399     4.234974     1.684150
 C    -0.000264     4.740898     0.385835
 C     0.000090     4.217014    -2.106923
 H    -0.000513     4.926473     2.532292
 H    -0.000329     5.821687     0.212273
 H     0.000050     5.276998    -2.380016
 C    -0.000146     1.920004     0.888277
 C    -0.000353     2.831338     1.946927
 C    -0.000079     3.846653    -0.726869
 C     0.000298     3.234386    -3.095645
 C     0.000322     1.843432    -2.774994
 C     0.000146     1.451027    -1.440977
 C    -0.000032     2.440922    -0.430573
 C    -0.000099     0.371387     0.927118
 C    -1.291978    -0.157188     1.623441
 C    -2.288560     0.745479     2.075761
 C    -3.501950     0.328109     2.643214
 C    -3.788763    -1.040790     2.756029
 C    -2.836286    -1.957897     2.308559
 C    -1.582630    -1.554440     1.770922
 C    -0.679231    -2.645120     1.416308
 C     0.678764    -2.645158     1.416274
 C     1.582122    -1.554525     1.771152
 C     1.291429    -0.157266     1.623928
 C     0.000156     0.010103    -0.876775
 C    -1.361504    -0.615394    -1.307044
 C    -2.480184     0.257087    -1.212069
 C    -3.792534    -0.116089    -1.527849
 C    -4.052967    -1.420425    -1.974562
 C    -2.981720    -2.305462    -2.083065
 C    -1.636107    -1.945817    -1.766282
 C    -0.677896    -3.024879    -1.978024
 C     0.679002    -3.024684    -1.978048
 C     1.636957    -1.945419    -1.766137
 C     1.362045    -0.615124    -1.306699
 H    -0.000537     2.484344     2.983676
 H     0.000451     3.531864    -4.148777
 H     0.000487     1.100598    -3.577250
 H    -2.134591     1.815710     1.960574
 H    -4.227914     1.079006     2.969506
 H    -4.737054    -1.386438     3.177934
 H    -3.037816    -3.030938     2.387530
 H    -1.170927    -3.605943     1.227543
 H     1.170415    -3.605982     1.227445
 H    -2.323740     1.278190    -0.869058
 H    -4.600976     0.612462    -1.418294
 H    -5.067112    -1.740299    -2.231014
 H    -3.163246    -3.325612    -2.435774
 H    -1.147187    -3.986225    -2.217618
 H     1.148564    -3.985893    -2.217628
 H     2.323852     1.278513    -0.868102
 C     2.835685    -1.958036     2.308947
 C     3.787951    -1.040957     2.756955
 C     3.500986     0.327946     2.644610
 C     2.287728     0.745368     2.076888
 C     2.982699    -2.304766    -2.082763
 C     4.053768    -1.419573    -1.973883
 C     3.793033    -0.115381    -1.526883
 C     2.480574     0.257517    -1.211301
 H     3.037307    -3.031082     2.387620
 H     4.736198    -1.386649     3.178916
 H     4.226731     1.078819     2.971443
 H     2.133649     1.815621     1.962030
 H     3.164452    -3.324788    -2.435694
 H     5.068031    -1.739217    -2.230168
 H     4.601334     0.613275    -1.416964
