   70
scf done: -1616.512640
 H    -6.280563    -0.884820    -1.193602
 C    -4.274726     0.000565     1.180953
 C    -3.486186    -0.000231    -0.000414
 C    -4.274445    -0.001216    -1.181957
 C    -3.623093    -0.002114    -2.408714
 C    -5.753749     0.000144     0.790708
 C    -5.753558    -0.001118    -0.792076
 H    -4.175171    -0.002919    -3.354103
 H    -6.280938    -0.882861     1.193524
 H    -6.281031     0.883759     1.192066
 H    -6.280828     0.881798    -1.194979
 H    -0.503508    -4.569479    -1.971501
 C    -1.398274     0.000707     1.276676
 C    -2.194350     0.001553     2.433886
 C    -3.623670     0.001489     2.407854
 C    -2.193771    -0.001910    -2.434417
 C    -1.397979    -0.000945    -1.277001
 C    -2.058167    -0.000141    -0.000253
 C     0.116392     0.000507     1.376872
 C     0.700631     1.327384     1.647131
 C    -0.184896     2.456425     1.691207
 C     0.236826     3.765047     1.944821
 C     1.598792     4.042365     2.146201
 C     2.503149     2.979574     2.078956
 C     2.105734     1.636279     1.840065
 C     3.200298     0.680889     1.808453
 C     3.200137    -0.680624     1.808099
 C     2.105332    -1.635755     1.839736
 C     2.502520    -2.979194     2.078283
 C     1.597852    -4.041637     2.146578
 C     0.235750    -3.763788     1.946820
 C    -0.185728    -2.455092     1.693229
 C     0.700205    -1.326432     1.647716
 C     0.116720    -0.000514    -1.376962
 C     0.700310     1.326595    -1.647643
 C    -0.185806     2.455154    -1.692283
 C     0.235346     3.764012    -1.945624
 C     0.238036    -3.765283    -1.943067
 C    -0.184004    -2.456644    -1.690183
 C     0.701229    -1.327334    -1.646841
 H    -1.692236     0.002238     3.406156
 H    -4.175952     0.002138     3.353125
 H    -1.248785     2.291866     1.538970
 H    -0.504937     4.569026     1.973800
 H     1.948213     5.059752     2.342812
 H     3.570875     3.174380     2.221693
 H     4.191852     1.148154     1.830779
 H     4.191588    -1.148120     1.830135
 H     3.570311    -3.174332     2.220076
 H     1.947085    -5.059152     2.342849
 H    -0.506329    -4.567432     1.977041
 H    -1.249722    -2.290149     1.542153
 H    -1.249690     2.290013    -1.540696
 H    -0.506847     4.567579    -1.975129
 H    -1.247912    -2.292269    -1.537900
 H     1.949676    -5.059846    -2.340367
 C     1.597284     4.042112    -2.146102
 C     2.502138     2.979762    -2.078682
 C     2.105293     1.636194    -1.840323
 C     3.200258     0.681257    -1.809585
 C     3.200692    -0.680268    -1.809677
 C     2.106366    -1.635957    -1.840010
 C     2.504114    -2.979321    -2.078095
 C     1.600056    -4.042394    -2.144442
 H    -1.691402    -0.002513    -3.406553
 H     1.946266     5.059744    -2.342215
 H     3.569811     3.175109    -2.221053
 H     4.191615     1.148908    -1.832635
 H     4.192348    -1.147279    -1.832814
 H     3.571861    -3.173895    -2.220996
