  212
scf done: -3350.957805
 C     0.873706    -0.001362     0.011142
 C    -0.873706     0.001362    -0.011142
 C     1.509246     0.331731    -1.416390
 C    -1.509246    -0.331731     1.416390
 C    -1.480982     1.414510    -0.441275
 C     1.480982    -1.414510     0.441275
 C     1.465081     1.079370     1.024462
 C    -1.465081    -1.079370    -1.024462
 C     1.075212     1.144523     2.388296
 C    -1.075212    -1.144523    -2.388296
 C    -1.116207    -1.460806     2.189155
 C     1.116207     1.460806    -2.189155
 C     1.115535    -2.629831    -0.194101
 C    -1.115535     2.629831     0.194101
 C     2.534651     1.920916     0.635974
 C    -2.534651    -1.920916    -0.635974
 C    -2.627587     0.394160     1.883417
 C     2.627587    -0.394160    -1.883417
 C     2.561291    -1.483301     1.354490
 C    -2.561291     1.483301    -1.354490
 C     1.671695     2.033263     3.312792
 C    -1.671695    -2.033263    -3.312792
 C    -1.775199    -1.828987     3.380875
 C     1.775199     1.828987    -3.380875
 C     1.758490    -3.859696     0.080523
 C    -1.758490     3.859696    -0.080523
 C     3.185680     2.803081     1.530412
 C    -3.185680    -2.803081    -1.530412
 C    -3.336649     0.048646     3.061477
 C     3.336649    -0.048646    -3.061477
 C     3.258357    -2.682368     1.635121
 C    -3.258357     2.682368    -1.635121
 C     2.724691     2.858954     2.859332
 C    -2.724691    -2.858954    -2.859332
 C    -2.886301    -1.057477     3.798988
 C     2.886301     1.057477    -3.798988
 C     2.832023    -3.862414     0.996654
 C    -2.832023     3.862414    -0.996654
 H     0.297302     0.477205     2.744860
 H    -0.297302    -0.477205    -2.744860
 H    -0.286597    -2.066579     1.842801
 H     0.286597     2.066579    -1.842801
 H     0.322607    -2.622086    -0.935437
 H    -0.322607     2.622086     0.935437
 H     2.899893     1.877156    -0.386156
 H    -2.899893    -1.877156     0.386156
 H    -2.989306     1.241927     1.308511
 H     2.989306    -1.241927    -1.308511
 H     2.899098    -0.573755     1.844149
 H    -2.899098     0.573755    -1.844149
 C     1.226586     2.034844     4.806128
 C    -1.226586    -2.034844    -4.806128
 C    -1.353455    -3.057076     4.237402
 C     1.353455     3.057076    -4.237402
 C     1.289770    -5.163110    -0.631700
 C    -1.289770     5.163110     0.631700
 C     4.412573     3.623989     1.038677
 C    -4.412573    -3.623989    -1.038677
 C    -4.596143     0.864267     3.468741
 C     4.596143    -0.864267    -3.468741
 C     4.476370    -2.657097     2.601779
 C    -4.476370     2.657097    -2.601779
 H     3.205129     3.539497     3.559228
 H    -3.205129    -3.539497    -3.559228
 H    -3.409414    -1.343904     4.711928
 H     3.409414     1.343904    -4.711928
 H     3.349435    -4.795946     1.205735
 H    -3.349435     4.795946    -1.205735
 C     5.207192    -0.382900    -4.813154
 C    -5.207192     0.382900     4.813154
 C    -5.125167     4.057477    -2.781237
 C     5.125167    -4.057477     2.781237
 C     4.970298     4.574986     2.133049
 C    -4.970298    -4.574986    -2.133049
 C     5.684517    -0.708045    -2.360549
 C    -5.684517     0.708045     2.360549
 C    -5.566166     1.692975    -2.036610
 C     5.566166    -1.692975     2.036610
 C     5.551146     2.635328     0.633782
 C    -5.551146    -2.635328    -0.633782
 C     4.234992    -2.373274    -3.618940
 C    -4.234992     2.373274     3.618940
 C    -4.027990     2.153769    -4.006490
 C     4.027990    -2.153769     4.006490
 C     4.030310     4.491356    -0.199110
 C    -4.030310    -4.491356     0.199110
 C     1.015009     2.596379    -5.689722
 C    -1.015009    -2.596379     5.689722
 C    -2.131851     6.403794     0.224297
 C     2.131851    -6.403794    -0.224297
 C     1.800136     3.246141     5.594970
 C    -1.800136    -3.246141    -5.594970
 C     0.111648     3.787747    -3.665204
 C    -0.111648    -3.787747     3.665204
 C     0.197768     5.452542     0.266920
 C    -0.197768    -5.452542    -0.266920
 C    -0.325095     2.084497     4.929817
 C     0.325095    -2.084497    -4.929817
 C     2.531741     4.079708    -4.295724
 C    -2.531741    -4.079708     4.295724
 C    -1.404649     4.996027     2.176827
 C     1.404649    -4.996027    -2.176827
 C     1.743772     0.728907     5.484101
 C    -1.743772    -0.728907    -5.484101
 H     0.732376     3.465863    -6.309109
 H    -0.732376    -3.465863     6.309109
 H    -1.754639     7.294729     0.754585
 H     1.754639    -7.294729    -0.754585
 H     1.408940     3.232985     6.626610
 H    -1.408940    -3.232985    -6.626610
 H     1.870820     2.102799    -6.178259
 H    -1.870820    -2.102799     6.178259
 H    -3.196247     6.286841     0.490137
 H     3.196247    -6.286841    -0.490137
 H     2.900535     3.218212     5.664229
 H    -2.900535    -3.218212    -5.664229
 H     0.170974     1.886795    -5.694559
 H    -0.170974    -1.886795     5.694559
 H    -2.067426     6.611189    -0.857268
 H     2.067426    -6.611189     0.857268
 H     1.508444     4.207146     5.138365
 H    -1.508444    -4.207146    -5.138365
 H     2.250020     4.954616    -4.908269
 H    -2.250020    -4.954616     4.908269
 H    -1.051355     5.909695     2.687404
 H     1.051355    -5.909695    -2.687404
 H     1.434995     0.693127     6.544241
 H    -1.434995    -0.693127    -6.544241
 H     2.792261     4.441020    -3.286680
 H    -2.792261    -4.441020     3.286680
 H    -0.797441     4.152876     2.539749
 H     0.797441    -4.152876    -2.539749
 H     1.344043    -0.167127     4.982819
 H    -1.344043     0.167127    -4.982819
 H     3.439243     3.638969    -4.739998
 H    -3.439243    -3.638969     4.739998
 H    -2.450017     4.819549     2.481267
 H     2.450017    -4.819549    -2.481267
 H     2.845098     0.673940     5.448964
 H    -2.845098    -0.673940    -5.448964
 H    -0.153955     4.636686    -4.318685
 H     0.153955    -4.636686     4.318685
 H     0.550586     6.359696     0.789730
 H    -0.550586    -6.359696    -0.789730
 H    -0.617317     2.050210     5.994384
 H     0.617317    -2.050210    -5.994384
 H    -0.766673     3.125678    -3.602869
 H     0.766673    -3.125678     3.602869
 H     0.313224     5.621032    -0.817289
 H    -0.313224    -5.621032     0.817289
 H    -0.727543     3.016346     4.499862
 H     0.727543    -3.016346    -4.499862
 H     0.299983     4.190778    -2.657535
 H    -0.299983    -4.190778     2.657535
 H     0.857525     4.619569     0.553439
 H    -0.857525    -4.619569    -0.553439
 H    -0.816419     1.239948     4.424601
 H     0.816419    -1.239948    -4.424601
 H     6.084998    -1.002065    -5.064898
 H    -6.084998     1.002065     5.064898
 H    -5.978524     3.982961    -3.476473
 H     5.978524    -3.982961     3.476473
 H     5.830027     5.138012     1.731756
 H    -5.830027    -5.138012    -1.731756
 H     4.488924    -0.470177    -5.646147
 H    -4.488924     0.470177     5.646147
 H    -4.416165     4.789080    -3.204601
 H     4.416165    -4.789080     3.204601
 H     4.216332     5.309681     2.463174
 H    -4.216332    -5.309681    -2.463174
 H     5.547849     0.665108    -4.761273
 H    -5.547849    -0.665108     4.761273
 H    -5.508837     4.461293    -1.828967
 H     5.508837    -4.461293     1.828967
 H     5.323709     4.021990     3.019683
 H    -5.323709    -4.021990    -3.019683
 H     6.587808    -1.287547    -2.622013
 H    -6.587808     1.287547     2.622013
 H    -6.437873     1.658203    -2.714145
 H     6.437873    -1.658203     2.714145
 H     6.435359     3.192254     0.275542
 H    -6.435359    -3.192254    -0.275542
 H     5.980358     0.348859    -2.244784
 H    -5.980358    -0.348859     2.244784
 H    -5.918345     2.032605    -1.047359
 H     5.918345    -2.032605     1.047359
 H     5.863190     2.018165     1.493844
 H    -5.863190    -2.018165    -1.493844
 H     5.325036    -1.065837    -1.382305
 H    -5.325036     1.065837     1.382305
 H    -5.187080     0.664444    -1.924023
 H     5.187080    -0.664444     1.924023
 H     5.232677     1.953464    -0.171119
 H    -5.232677    -1.953464     0.171119
 H     5.134516    -2.956939    -3.883738
 H    -5.134516     2.956939     3.883738
 H    -4.890675     2.115227    -4.695347
 H     4.890675    -2.115227     4.695347
 H     4.914905     5.040262    -0.567558
 H    -4.914905    -5.040262     0.567558
 H     3.825930    -2.791986    -2.686257
 H    -3.825930     2.791986     2.686257
 H    -3.590910     1.144821    -3.959063
 H     3.590910    -1.144821     3.959063
 H     3.647637     3.878179    -1.030317
 H    -3.647637    -3.878179     1.030317
 H     3.485067    -2.523931    -4.413657
 H    -3.485067     2.523931     4.413657
 H    -3.273059     2.828504    -4.444969
 H     3.273059    -2.828504     4.444969
 H     3.254638     5.230801     0.060337
 H    -3.254638    -5.230801    -0.060337
