   66
scf done: -2158.286957
Cl    -2.004484     3.098162    -0.845934
Cl    -1.970923    -3.085262     0.925626
 C    -0.722278    -0.682985     0.208981
 C     0.816835    -0.743386     0.416167
 C     0.802974     0.760823    -0.446816
 C    -0.731718     0.680338    -0.231248
 C    -1.924439     1.368455    -0.393850
 C    -3.183023     0.689507    -0.191184
 C    -4.445480     1.338292    -0.360959
 C    -5.642241     0.656705    -0.188874
 C    -5.633987    -0.716634     0.164602
 C    -4.429194    -1.381703     0.345040
 C    -3.174508    -0.716373     0.181191
 C    -1.907957    -1.376860     0.394300
 C     1.606434    -1.904476    -0.219982
 C     0.957349    -3.007982    -0.820721
 C     1.676083    -4.095801    -1.349299
 C     3.078300    -4.115295    -1.297489
 C     3.748924    -3.021573    -0.723925
 C     3.024579    -1.937029    -0.200404
 C     1.100879    -0.698194     2.060763
 C     0.033461     0.146453     2.823108
 C     1.016209    -2.157865     2.610774
 C     2.489552    -0.157068     2.522669
 C     1.586941     1.921601     0.192521
 C     0.938424     2.989348     0.855072
 C     1.657186     4.062461     1.413550
 C     3.057445     4.101662     1.328540
 C     3.727188     3.040926     0.694192
 C     3.004017     1.970136     0.143546
 C     1.074113     0.715911    -2.086771
 C     0.153217    -0.303674    -2.825439
 C     0.746823     2.121990    -2.681640
 C     2.539921     0.410514    -2.528431
 H    -4.458080     2.392156    -0.638170
 H    -6.591087     1.182272    -0.328581
 H    -6.576430    -1.255326     0.297484
 H    -4.429749    -2.435644     0.622250
 H    -0.128674    -3.026081    -0.882109
 H     1.128964    -4.928471    -1.801774
 H     3.640021    -4.961663    -1.703273
 H     4.842502    -3.003247    -0.687183
 H     3.582790    -1.096064     0.208927
 H    -0.982775    -0.262010     2.724147
 H     0.285610     0.138691     3.897516
 H     0.019244     1.197139     2.501217
 H     1.847266    -2.782125     2.249863
 H     1.079351    -2.122089     3.712286
 H     0.076061    -2.657662     2.349563
 H     2.621393     0.914317     2.341754
 H     2.557874    -0.315216     3.613437
 H     3.336261    -0.699126     2.080528
 H    -0.146215     2.992563     0.939731
 H     1.111854     4.868023     1.914629
 H     3.618978     4.936858     1.757224
 H     4.820022     3.036046     0.636119
 H     3.561837     1.145238    -0.296380
 H     0.388046    -1.346323    -2.575219
 H    -0.915294    -0.128812    -2.631893
 H     0.309669    -0.185620    -3.911606
 H    -0.321637     2.363192    -2.628516
 H     1.307813     2.927550    -2.184292
 H     1.032144     2.125553    -3.748137
 H     2.539203     0.270167    -3.623351
 H     3.219300     1.249906    -2.322838
 H     2.953497    -0.502840    -2.086005
