   62
scf done: -1980.869692
 I     3.597047     1.582404    -0.224045
 I    -3.597525     1.581457     0.224283
 C     0.874123    -1.049055    -0.174713
 C    -0.873905    -1.049331     0.174607
 C    -0.704975     0.478280     0.097244
 C    -1.432263     1.651529     0.121941
 C    -0.733187     2.913204     0.049827
 C    -1.401972     4.175342     0.090543
 C    -0.708311     5.376747     0.045366
 C     0.706846     5.376943    -0.044429
 C     1.400827     4.175727    -0.089763
 C     0.732378     2.913406    -0.049178
 C     1.431777     1.651925    -0.121498
 C     0.704802     0.478484    -0.096972
 C     1.162158    -1.609797    -1.572701
 C     1.705939    -0.816156    -2.606090
 C     1.976344    -1.358020    -3.876632
 C     1.703139    -2.708442    -4.145678
 C     1.146786    -3.510681    -3.132946
 C     0.876559    -2.966040    -1.867831
 C     1.804644    -1.606963     0.922773
 C     1.846247    -0.983747     2.196511
 C     2.694474    -1.448259     3.212714
 C     3.538185    -2.550081     2.985589
 C     3.521217    -3.172960     1.727594
 C     2.669284    -2.706438     0.709961
 C    -1.804314    -1.607153    -0.923035
 C    -1.846133    -0.983521    -2.196566
 C    -2.694286    -1.447915    -3.212879
 C    -3.537698    -2.550043    -2.986095
 C    -3.520496    -3.173345    -1.728323
 C    -2.668629    -2.706936    -0.710566
 C    -1.161693    -1.610595     1.572440
 C    -0.875616    -2.966836     1.867126
 C    -1.145519    -3.511951     3.132102
 C    -1.701986    -2.710196     4.145160
 C    -1.975644    -1.359780     3.876567
 C    -1.705562    -0.817441     2.606155
 H    -2.490867     4.181638     0.165483
 H    -1.257105     6.321960     0.080814
 H     1.255390     6.322304    -0.079774
 H     2.489717     4.182328    -0.164737
 H     1.921592     0.237410    -2.425503
 H     2.400329    -0.715712    -4.654396
 H     1.912070    -3.130404    -5.133107
 H     0.912048    -4.561192    -3.328965
 H     0.423694    -3.601704    -1.103243
 H     1.205400    -0.124551     2.400724
 H     2.696202    -0.943335     4.183294
 H     4.203095    -2.911578     3.775588
 H     4.179631    -4.023328     1.525060
 H     2.698498    -3.198021    -0.262292
 H    -1.205523    -0.124086    -2.400513
 H    -2.696193    -0.942677    -4.183296
 H    -4.202564    -2.911427    -3.776185
 H    -4.178645    -4.023977    -1.526049
 H    -2.697660    -3.198874     0.261514
 H    -0.422662    -3.602127     1.102279
 H    -0.910426    -4.562448     3.327768
 H    -1.910650    -3.132538     5.132482
 H    -2.399727    -0.717838     4.654580
 H    -1.921545     0.236118     2.425935
