   54
scf done: -1306.977438
 C     0.000368     0.665886     0.885285
 C    -0.000113     0.664573    -0.885399
 C    -0.000361    -1.919445     0.684848
 C    -0.000734    -1.920713    -0.682236
 C    -1.235194    -0.014778     1.483572
 C    -2.317967     0.640131     2.089591
 H    -2.335334     1.732291     2.142150
 C    -3.383762    -0.111839     2.626503
 H    -4.222243     0.404235     3.103695
 C    -3.373837    -1.514080     2.550387
 H    -4.203650    -2.091742     2.968347
 C    -2.296695    -2.183451     1.932547
 H    -2.289076    -3.274899     1.860885
 C    -1.235578    -1.440623     1.401631
 C     1.235787    -0.015434     1.483087
 C     2.319010     0.638870     2.088933
 H     2.337039     1.731021     2.141417
 C     3.384476    -0.113691     2.625698
 H     4.223279     0.401929     3.102811
 C     3.373782    -1.515914     2.549555
 H     4.203313    -2.094051     2.967418
 C     2.296197    -2.184691     1.931828
 H     2.288030    -3.276133     1.860074
 C     1.235402    -1.441294     1.401092
 C    -1.235849    -0.016840    -1.482477
 C    -2.318609     0.637431    -2.089242
 H    -2.336046     1.729531    -2.142787
 C    -3.384245    -0.115095    -2.625689
 H    -4.222715     0.400493    -3.103431
 C    -3.374231    -1.517266    -2.548335
 H    -4.203843    -2.095375    -2.966067
 C    -2.297162    -2.185992    -1.929648
 H    -2.289546    -3.277375    -1.856890
 C    -1.236260    -1.442614    -1.399139
 C     1.235081    -0.017453    -1.482982
 C     2.318032     0.636243    -2.089982
 H     2.336011     1.728334    -2.143569
 C     3.383185    -0.116835    -2.626643
 H     4.221811     0.398330    -3.104556
 C     3.372464    -1.518988    -2.549276
 H     4.201717    -2.097542    -2.967117
 C     2.295155    -2.187161    -1.930387
 H     2.286965    -3.278548    -1.857700
 C     1.234740    -1.443258    -1.399671
 C     0.000688     2.180612     0.700945
 C     0.001462     3.368724     1.442355
 H     0.001731     3.383611     2.536246
 C     0.001847     4.574594     0.702605
 H     0.002465     5.530839     1.234595
 C     0.001485     4.573572    -0.708540
 H     0.001823     5.529038    -1.241917
 C     0.000742     3.366585    -1.446465
 H     0.000457     3.379719    -2.540368
 C     0.000328     2.179616    -0.703224
