   23
scf done:  -739.556714
 C     7.894249     5.712943     9.899026
 C     8.081445     7.007096    10.387599
 C     7.052912     7.955147    10.246549
 C     5.852880     7.576821     9.613706
 C     5.709035     6.274271     9.141076
 N     6.722049     5.362822     9.286883
 C     6.529237     3.973648     8.766020
 C     7.573035     2.819259     8.848304
 C     5.410174     2.975118     9.218363
 C     6.241982     3.588657     7.274743
 C     6.288719     2.265760     8.123812
 I     6.018092     0.264208     7.376110
 H     8.648107     4.930307     9.974734
 H     9.026756     7.258583    10.871551
 H     7.182256     8.972377    10.622851
 H     5.030150     8.282125     9.484246
 H     4.809203     5.914566     8.642420
 H     7.781963     2.400839     9.843649
 H     8.474719     2.911577     8.225509
 H     4.376524     3.214946     8.929580
 H     5.484711     2.579970    10.241324
 H     7.061215     3.742762     6.558342
 H     5.260387     3.867097     6.864503
