   50
scf done:  -980.539287
 B     5.737730     3.523193     3.608184
 B     4.191652     4.440990     3.608649
 B     3.575802     4.440898     5.289901
 B     5.747270     5.306552     3.582236
 B     4.407245     5.879403     4.641098
 C     4.398297     3.089079     4.637732
 C     2.658356     1.652319     4.000248
 H     2.013900     2.518260     3.763952
 N     3.866336     1.799101     4.442935
 C     2.056547     0.327551     3.779961
 C     0.729609     0.250402     3.293325
 H     0.177012     1.173467     3.090385
 C     0.124358    -0.996483     3.071697
 H    -0.901273    -1.046384     2.695546
 C     0.839772    -2.178579     3.334442
 H     0.369993    -3.151425     3.162422
 C     2.162698    -2.111095     3.819646
 H     2.716486    -3.032258     4.023069
 C     2.769528    -0.869391     4.041833
 H     3.792687    -0.796292     4.417087
 H     2.416725     4.288610     5.526157
 H     6.047333     2.747963     2.763182
 H     3.459468     4.288704     2.679569
 H     6.106058     5.888165     2.602846
 H     3.801073     6.884157     4.419052
 B     4.755798     3.523137     6.288953
 B     6.301862     4.440956     6.288521
 B     6.917713     4.440936     4.607269
 B     4.746232     5.306495     6.314966
 B     6.086248     5.879405     5.256124
 C     6.095238     3.089080     5.259388
 C     7.835198     1.652323     5.896825
 H     8.479626     2.518264     6.133197
 N     6.627218     1.799103     5.454139
 C     8.436983     0.327555     6.117183
 C     9.763893     0.250408     6.603897
 H    10.316486     1.173474     6.806843
 C    10.369122    -0.996476     6.825588
 H    11.394733    -1.046375     7.201796
 C     9.653712    -2.178572     6.562838
 H    10.123474    -3.151418     6.734909
 C     8.330813    -2.111090     6.077561
 H     7.777028    -3.032254     5.874133
 C     7.724005    -0.869388     5.855308
 H     6.700867    -0.796290     5.479995
 H     8.076792     4.288674     4.371008
 H     4.446207     2.747871     7.133926
 H     7.034049     4.288647     7.217595
 H     4.387436     5.888066     7.294377
 H     6.692405     6.884159     5.478207
