   55
scf done: -1020.991171
 B    -2.308158     0.003145    -1.484068
 H    -1.552267    -0.041370    -2.399972
 B    -3.099862     1.468461    -0.907722
 H    -2.947331     2.480940    -1.517300
 B    -2.989680     1.502327     0.894953
 H    -2.812931     2.537929     1.456683
 B    -2.177310     0.041136     1.498358
 H    -1.340976     0.047098     2.340724
 B    -3.058485    -1.397376     0.982291
 H    -2.903620    -2.418196     1.578240
 B    -3.121081    -1.425765    -0.826307
 H    -3.017307    -2.463945    -1.401976
 B    -4.052469     0.021660    -1.375577
 H    -4.701251    -0.004660    -2.377763
 B    -3.915960     0.090128     1.534123
 H    -4.479935     0.138014     2.585620
 B    -4.522244    -0.843591     0.123017
 H    -5.533402    -1.475719     0.183536
 B    -4.496056     0.964909     0.077821
 H    -5.485961     1.631242     0.118777
 N    -0.337333     1.206666    -0.161240
 N    -0.367108    -1.206924     0.019328
 C    -1.720388     0.830046    -0.048923
 C    -1.750302    -0.804987     0.019674
 C     0.444885    -0.024797    -0.441622
 H     1.405792     0.008750     0.091679
 H     0.650549    -0.111850    -1.528181
 C    -0.028736    -2.478290    -0.660875
 H    -0.118410    -2.383281    -1.764802
 H    -0.777424    -3.220862    -0.338785
 C     1.375342    -2.957766    -0.297210
 C     1.772073    -3.063899     1.054370
 H     1.073651    -2.763670     1.840736
 C     3.050959    -3.539475     1.386404
 H     3.345505    -3.616733     2.437339
 C     3.950578    -3.919698     0.372250
 H     4.946223    -4.291131     0.631987
 C     3.564306    -3.817007    -0.974916
 H     4.258246    -4.105810    -1.769816
 C     2.284702    -3.334694    -1.305952
 H     1.989007    -3.252343    -2.357085
 C     0.225733     2.126039     0.863039
 H     0.406381     1.607939     1.826324
 H    -0.544229     2.891536     1.049579
 C     1.513433     2.792628     0.384572
 C     2.642859     2.837899     1.227152
 H     2.601047     2.359545     2.211437
 C     3.818550     3.493776     0.818165
 H     4.685903     3.519690     1.484429
 C     3.878741     4.105970    -0.445151
 H     4.792669     4.613474    -0.767490
 C     2.757806     4.059854    -1.296082
 H     2.798444     4.533512    -2.281565
 C     1.583543     3.409255    -0.884276
 H     0.714728     3.367409    -1.547126
