   72
scf done: -1218.653054
 N     1.719524     0.587415     0.272194
 N    -1.735729     0.641777     0.256503
 C     4.265730    -3.102512     0.509183
 H     4.037722    -4.099409     0.902284
 C     3.205825    -2.290220     0.061464
 C    -3.514066    -0.922766    -0.500251
 C     3.487910    -0.991769    -0.446100
 C     1.086992     1.826591     0.184396
 C     2.344643    -0.091360    -0.905469
 H     2.704498     0.666359    -1.618335
 H     1.570462    -0.680087    -1.425377
 C     5.604302    -2.668460     0.468271
 B    -1.423897     3.163727    -0.672249
 C    -1.060176     1.843105     0.239738
 B     0.085692     2.206719    -1.125974
 C    -5.810683    -1.221302     0.278098
 H    -6.769230    -0.781564     0.575316
 C     4.832941    -0.528967    -0.485320
 C    -3.348438    -2.333829    -0.504411
 C     5.862187    -1.377184    -0.029352
 H     6.895279    -1.014355    -0.060597
 C    -2.368436    -0.003950    -0.921720
 H    -1.614938    -0.558921    -1.505609
 H    -2.738446     0.806422    -1.567516
 B     1.541824     3.207535    -0.678396
 B    -0.015285     2.188675     1.539908
 C    -4.764850    -0.362516    -0.107350
 B     0.063152     3.999318    -1.221285
 C    -4.425689    -3.155305    -0.109750
 H    -4.289639    -4.242176    -0.116942
 C    -5.664257    -2.622898     0.287690
 B    -1.454381     3.226156     1.133759
 B     1.499991     3.132555     1.117815
 C     6.737555    -3.572773     0.926889
 H     7.123121    -4.187381     0.092096
 H     6.407013    -4.268576     1.715817
 H     7.587070    -2.989561     1.319089
 C     1.780832    -2.825719     0.125567
 H     1.739829    -3.765492     0.698424
 H     1.380454    -3.038629    -0.882962
 H     1.093058    -2.105749     0.600337
 B    -0.830338     4.613680     0.223513
 C    -2.048287    -3.000667    -0.942412
 H    -2.097331    -4.088343    -0.776146
 H    -1.172030    -2.621949    -0.389677
 H    -1.843160    -2.843797    -2.017139
 B     0.937631     4.600874     0.246008
 C    -5.004857     1.140715    -0.109680
 H    -6.026804     1.372792     0.228575
 H    -4.885140     1.574313    -1.119079
 H    -4.299282     1.673784     0.548854
 B     0.037151     3.986168     1.680593
 C    -6.811217    -3.523715     0.718459
 H    -7.051910    -3.386578     1.788345
 H    -6.568664    -4.587571     0.565177
 H    -7.733236    -3.302040     0.152677
 C     5.197241     0.855570    -1.008860
 H     6.273441     1.048562    -0.877482
 H     4.648903     1.659549    -0.489132
 H     4.973846     0.961748    -2.085865
 H     0.051351     1.469969    -2.062404
 H    -2.454220     3.133410     1.778024
 H    -0.003308     1.413853     2.450176
 H     1.580571     5.607841     0.273399
 H    -2.394613     3.109953    -1.364233
 H     2.475966     3.006742     1.796316
 H    -1.457955     5.630417     0.202421
 H     0.039997     4.584714    -2.262759
 H     2.541389     3.115042    -1.324651
 H     0.061971     4.549238     2.734307
 H     2.246536     0.458964     1.138011
 H    -1.638059     0.066726     1.092452
