   54
scf done:  -982.926497
 B    -1.181298     2.000155     0.000000
 B    -0.785938     2.996979     1.479682
 B     1.011444     3.087222     1.475218
 B     1.487199     2.130886     0.000000
 B    -1.378029     3.785818     0.000000
 B     0.044224     4.470481     0.883384
 B     1.520324     3.935067     0.000000
 C     0.175281     1.701947     1.053768
 N     0.289804     0.456533     1.667786
 C    -0.780758    -0.080805     2.547043
 H    -1.699136    -0.158328     1.940796
 H    -1.000026     0.615701     3.378583
 C    -0.380752    -1.440017     3.106584
 C    -0.322834    -1.648700     4.499909
 H    -0.562625    -0.823653     5.178474
 C     0.036772    -2.903808     5.023769
 H     0.075456    -3.049265     6.107275
 C     0.351540    -3.964060     4.156807
 H     0.634622    -4.939976     4.561911
 C     0.303035    -3.764376     2.764161
 H     0.546987    -4.585984     2.084048
 C    -0.061505    -2.512019     2.244001
 H    -0.094936    -2.353835     1.162142
 H    -2.074753     1.211166     0.000000
 H     2.540700     4.556457     0.000000
 H    -1.448003     2.873894     2.464360
 H     2.438625     1.408373     0.000000
 H    -2.450963     4.310869     0.000000
 H     1.677456     3.006658     2.463213
 H    -0.009679     5.478762     1.522112
 H     1.230629     0.264667     2.019338
 B    -0.785938     2.996979    -1.479682
 B     1.011444     3.087222    -1.475218
 B     0.044224     4.470481    -0.883384
 C     0.175281     1.701947    -1.053768
 N     0.289804     0.456533    -1.667786
 C    -0.780758    -0.080805    -2.547043
 H    -1.699136    -0.158328    -1.940796
 H    -1.000026     0.615701    -3.378583
 C    -0.380752    -1.440017    -3.106584
 C    -0.322834    -1.648700    -4.499909
 H    -0.562625    -0.823653    -5.178474
 C     0.036772    -2.903808    -5.023769
 H     0.075456    -3.049265    -6.107275
 C     0.351540    -3.964060    -4.156807
 H     0.634622    -4.939976    -4.561911
 C     0.303035    -3.764376    -2.764161
 H     0.546987    -4.585984    -2.084048
 C    -0.061505    -2.512019    -2.244001
 H    -0.094936    -2.353835    -1.162142
 H    -1.448003     2.873894    -2.464360
 H     1.677456     3.006658    -2.463213
 H    -0.009679     5.478762    -1.522112
 H     1.230629     0.264667    -2.019338
