   70
scf done: -1616.216371
 H    -5.988677    -0.862671    -1.647606
 C    -4.258971    -0.000193     0.850730
 C    -3.419622    -0.000234    -0.239882
 C    -4.039909    -0.000175    -1.472938
 C    -3.242463    -0.000191    -2.565135
 C    -5.659611    -0.000663     0.323751
 C    -5.514757     0.000362    -1.215027
 H    -3.652890    -0.000122    -3.550631
 H    -6.203387    -0.865056     0.661114
 H    -6.204836     0.862330     0.662305
 H    -5.987391     0.864830    -1.646176
 H    -0.397505    -4.487140    -0.950778
 C    -1.448993    -0.000013     1.112613
 C    -2.267569     0.000100     2.198621
 C    -3.674167     0.000008     2.072492
 C    -1.833484    -0.000212    -2.431646
 C    -1.252476    -0.000173    -1.212342
 C    -2.071889    -0.000182    -0.112209
 C     0.056604    -0.000015     0.912391
 C     0.677093     1.230571     1.557002
 C    -0.090357     2.140390     2.248935
 C     0.431908     3.283911     2.784592
 C     1.757401     3.571131     2.624372
 C     2.535518     2.687814     1.939454
 C     2.026513     1.515025     1.428596
 C     2.972739     0.655725     0.759619
 C     2.972710    -0.655855     0.759551
 C     2.026462    -1.515155     1.428498
 C     2.535445    -2.687974     1.939330
 C     1.757324    -3.571254     2.624276
 C     0.431844    -3.283970     2.784561
 C    -0.090390    -2.140427     2.248943
 C     0.677075    -1.230633     1.556971
 C     0.192755     0.000007    -0.761078
 C     0.741654     1.329510    -1.255023
 C    -0.057361     2.412623    -0.933275
 C     0.254701     3.698538    -1.247181
 C     0.255393    -3.698471    -1.247529
 C    -0.056882    -2.412657    -0.933442
 C     0.741977    -1.329369    -1.255013
 H    -1.859997     0.000206     3.186176
 H    -4.255727     0.000055     2.967764
 H    -1.135973     1.983121     2.346528
 H    -0.209646     3.957588     3.306428
 H     2.176484     4.468065     3.020458
 H     3.573406     2.892614     1.798008
 H     3.788181     1.153765     0.282796
 H     3.788127    -1.153885     0.282673
 H     3.573319    -2.892809     1.797837
 H     2.176377    -4.468211     3.020344
 H    -0.209707    -3.957624     3.306430
 H    -1.135991    -1.983095     2.346601
 H    -0.963458     2.241374    -0.401300
 H    -0.398323     4.487054    -0.950299
 H    -0.963031    -2.241621    -0.401491
 H     1.677884    -4.956896    -2.203333
 C     1.405656     3.960310    -1.939712
 C     2.194851     2.914680    -2.292262
 C     1.892554     1.599895    -1.970153
 C     2.869103     0.655338    -2.452475
 C     2.869250    -0.654668    -2.452481
 C     1.892906    -1.599459    -1.970192
 C     2.195412    -2.914152    -2.292503
 C     1.406394    -3.959956    -1.940108
 H    -1.238166    -0.000183    -3.317485
 H     1.677003     4.957333    -2.202770
 H     3.089241     3.100177    -2.844087
 H     3.720287     1.116665    -2.903623
 H     3.720536    -1.115794    -2.903643
 H     3.089816    -3.099413    -2.844383
