   66
scf done: -1538.838826
 C     0.001400     4.160933     1.510939
 C     0.001718     4.621919     0.240833
 C     0.001813     4.026289    -2.187075
 H     0.001599     4.856979     2.319495
 H     0.002165     5.671443     0.048109
 H     0.002242     5.046635    -2.499147
 C     0.000603     1.891644     0.804847
 C     0.000843     2.795003     1.810178
 C     0.001519     3.716488    -0.821858
 C     0.001563     3.033521    -3.101611
 C     0.001010     1.680389    -2.738793
 C     0.000725     1.364829    -1.433219
 C     0.000964     2.375093    -0.491443
 C    -0.000014     0.377822     0.830690
 C    -1.234900    -0.133859     1.563191
 C    -2.155636     0.728942     2.115133
 C    -3.300175     0.293280     2.721394
 C    -3.579692    -1.042089     2.777264
 C    -2.689316    -1.914374     2.229023
 C    -1.516366    -1.487423     1.647928
 C    -0.656732    -2.525635     1.133995
 C     0.654414    -2.526115     1.134085
 C     1.514720    -1.488589     1.648279
 C     1.234280    -0.134809     1.563568
 C     0.000105     0.003493    -0.779074
 C    -1.329088    -0.609132    -1.198538
 C    -2.411781     0.232508    -1.012338
 C    -3.696407    -0.119978    -1.285801
 C    -3.957501    -1.362730    -1.795801
 C    -2.912407    -2.199633    -2.013758
 C    -1.598769    -1.855324    -1.731005
 C    -0.655631    -2.897599    -2.050940
 C     0.654172    -2.897966    -2.050997
 C     1.597924    -1.856298    -1.730884
 C     1.328991    -0.610084    -1.198108
 H     0.000572     2.487099     2.832300
 H     0.001780     3.282524    -4.138988
 H     0.000810     0.925084    -3.491950
 H    -2.008942     1.777888     2.042885
 H    -3.980766     1.007399     3.126980
 H    -4.476572    -1.397139     3.231670
 H    -2.888865    -2.962574     2.253106
 H    -1.155178    -3.404148     0.787456
 H     1.152276    -3.404970     0.787566
 H    -2.242235     1.209529    -0.624956
 H    -4.484252     0.573554    -1.099775
 H    -4.953443    -1.668221    -2.022960
 H    -3.097154    -3.167590    -2.423277
 H    -1.117718    -3.809105    -2.361454
 H     1.115720    -3.809725    -2.361561
 H     2.243288     1.207740    -0.623699
 C     2.687191    -1.916469     2.229638
 C     3.578103    -1.044881     2.778129
 C     3.299627     0.290690     2.722242
 C     2.155545     0.727256     2.115742
 C     2.911381    -2.201359    -2.013619
 C     3.956990    -1.365230    -1.795271
 C     3.696661    -0.122502    -1.284796
 C     2.412241     0.230749    -1.011411
 H     2.885945    -2.964819     2.253724
 H     4.474605    -1.400636     3.232729
 H     3.980674     1.004278     3.127999
 H     2.009667     1.776320     2.043504
 H     3.095533    -3.169299    -2.423443
 H     4.952758    -1.671290    -2.022439
 H     4.484952     0.570421    -1.098400
