   66
scf done: -2158.172893
Cl    -1.973335     2.993582    -0.750696
Cl    -1.888137    -3.006066     0.853406
 C    -0.707336    -0.679590     0.180203
 C     0.794771    -0.670061     0.378045
 C     0.758112     0.711603    -0.450925
 C    -0.733777     0.661798    -0.226560
 C    -1.881173     1.336677    -0.354812
 C    -3.100132     0.640710    -0.160411
 C    -4.336633     1.275008    -0.306307
 C    -5.490854     0.600690    -0.150638
 C    -5.468929    -0.751122     0.161826
 C    -4.293707    -1.388967     0.314527
 C    -3.077426    -0.717825     0.161129
 C    -1.836305    -1.375436     0.353938
 C     1.614917    -1.797721    -0.180943
 C     1.029750    -2.922375    -0.705007
 C     1.775791    -3.977879    -1.159989
 C     3.139319    -3.934377    -1.105489
 C     3.744153    -2.814717    -0.601622
 C     2.991739    -1.766539    -0.150173
 C     1.027788    -0.570087     1.943172
 C    -0.055621     0.216180     2.648532
 C     0.988782    -1.973691     2.505557
 C     2.331855     0.028982     2.426962
 C     1.549865     1.848337     0.121694
 C     0.949737     2.891207     0.779775
 C     1.682809     3.914561     1.322821
 C     3.044083     3.920111     1.217489
 C     3.662385     2.884061     0.569766
 C     2.925048     1.865758     0.036188
 C     0.956404     0.624309    -2.013952
 C     0.089856    -0.427643    -2.670619
 C     0.538075     1.945009    -2.617316
 C     2.369917     0.391434    -2.502035
 H    -4.360741     2.310027    -0.549426
 H    -6.421578     1.106791    -0.269279
 H    -6.382805    -1.286502     0.282902
 H    -4.286212    -2.424101     0.557936
 H    -0.029233    -2.982954    -0.774396
 H     1.280633    -4.834008    -1.559286
 H     3.723541    -4.754532    -1.456199
 H     4.808266    -2.750988    -0.562956
 H     3.497598    -0.904930     0.212241
 H    -1.022313    -0.245783     2.575648
 H     0.196696     0.271268     3.693437
 H    -0.132630     1.223963     2.289063
 H     1.857158    -2.541943     2.227291
 H     0.964324    -1.914868     3.580308
 H     0.121956    -2.519925     2.192881
 H     2.373321     1.093623     2.321638
 H     2.403108    -0.188363     3.479410
 H     3.202429    -0.400063     1.974149
 H    -0.107605     2.912835     0.887049
 H     1.179743     4.706438     1.830171
 H     3.617247     4.714821     1.638217
 H     4.725841     2.860023     0.490320
 H     3.439597     1.057726    -0.423622
 H     0.385079    -1.425862    -2.416876
 H    -0.953828    -0.307690    -2.446693
 H     0.197493    -0.325763    -3.736805
 H    -0.521739     2.093513    -2.570180
 H     1.022383     2.782683    -2.148660
 H     0.811952     1.948615    -3.658523
 H     2.320388     0.216361    -3.562851
 H     2.990796     1.255753    -2.365379
 H     2.844585    -0.464345    -2.066546
