   66
scf done: -2158.155849
Cl     2.812040     2.522373     0.559228
Cl     0.732272    -3.158474    -0.651106
 C     0.440648    -0.524726    -0.342252
 C    -0.983784    -0.221572     0.024408
 C    -0.494060     1.351021     0.053946
 C     0.893771     0.759627    -0.056823
 C     2.203044     1.019880     0.040957
 C     3.125083    -0.008093    -0.268659
 C     4.505247     0.217835    -0.264556
 C     5.373520    -0.765865    -0.560993
 C     4.909499    -2.038520    -0.872129
 C     3.588589    -2.291213    -0.877253
 C     2.659676    -1.289130    -0.582191
 C     1.271582    -1.548873    -0.556225
 C    -1.239697    -0.955756     1.349537
 C    -0.192894    -1.369613     2.148485
 C    -0.396603    -2.075632     3.300107
 C    -1.663219    -2.403851     3.698243
 C    -2.713766    -2.020812     2.916334
 C    -2.501661    -1.320390     1.757894
 C    -2.076044    -0.602743    -0.934157
 C    -1.877025    -1.545272    -1.910885
 C    -2.882331    -1.908408    -2.765179
 C    -4.119042    -1.334128    -2.664135
 C    -4.336210    -0.396152    -1.692681
 C    -3.327093    -0.041735    -0.839177
 C    -0.837883     2.177169     1.333647
 C    -2.316019     2.124282     1.642542
 C    -0.462368     3.647655     1.292617
 C    -0.122149     1.666765     2.568865
 C    -0.723244     2.120639    -1.314751
 C    -0.653802     1.254723    -2.563083
 C    -2.034789     2.865548    -1.439910
 C     0.402730     3.115456    -1.545000
 H     4.868069     1.189497    -0.027629
 H     6.420966    -0.567402    -0.557308
 H     5.600817    -2.815291    -1.106987
 H     3.234488    -3.266587    -1.113596
 H     0.810028    -1.122460     1.890655
 H     0.445136    -2.369167     3.885445
 H    -1.825219    -2.957832     4.594897
 H    -3.711667    -2.276920     3.192360
 H    -3.350468    -1.081604     1.164468
 H    -0.917725    -1.983316    -2.038233
 H    -2.690001    -2.638002    -3.518992
 H    -4.901987    -1.612043    -3.332561
 H    -5.293172     0.065178    -1.595455
 H    -3.522990     0.689358    -0.089678
 H    -2.652058     1.120031     1.811863
 H    -2.920629     2.573881     0.878660
 H    -2.497345     2.668936     2.553545
 H    -0.901801     4.203055     0.491452
 H    -0.816256     4.091130     2.207065
 H     0.600195     3.792549     1.269557
 H    -0.225399     2.400656     3.349364
 H     0.930919     1.527936     2.402898
 H    -0.531610     0.754462     2.944511
 H     0.132511     0.522471    -2.531217
 H    -1.575197     0.760625    -2.787777
 H    -0.438490     1.905950    -3.392826
 H    -2.880923     2.212877    -1.369395
 H    -2.066915     3.306064    -2.421967
 H    -2.158998     3.663727    -0.737163
 H     0.125911     3.750724    -2.368696
 H     0.632708     3.748121    -0.718272
 H     1.305561     2.608421    -1.832335
