   58
scf done: -1978.511135
 I     3.449748     1.624355    -0.307416
 I    -3.452135     1.619470     0.307462
 C     0.799867    -0.851852     0.076266
 C    -0.798720    -0.852920    -0.076046
 C    -0.691670     0.629007     0.064624
 C    -1.408104     1.748890     0.143926
 C    -0.702433     2.975663     0.078977
 C    -1.362606     4.205108     0.154833
 C    -0.693713     5.370053     0.079302
 C     0.686184     5.371009    -0.078257
 C     1.356681     4.207002    -0.153940
 C     0.698206     2.976639    -0.078199
 C     1.405595     1.750867    -0.143227
 C     0.690756     0.629982    -0.063731
 C     1.274659    -1.234202     1.443819
 C     1.085273    -0.590189     2.631092
 C     1.624133    -1.131807     3.770765
 C     2.351043    -2.292827     3.714548
 C     2.582387    -2.913438     2.515379
 C     2.051292    -2.365996     1.380869
 C     2.251191    -2.699932    -0.015140
 C     3.012466    -3.683808    -0.580125
 C     3.151019    -3.706540    -1.942284
 C     2.551877    -2.748073    -2.716048
 C     1.777492    -1.768645    -2.146969
 C     1.607776    -1.758684    -0.792276
 C    -1.605237    -1.761383     0.792082
 C    -1.775032    -1.772095     2.146756
 C    -2.547923    -2.752944     2.715422
 C    -3.145479    -3.712072     1.941256
 C    -3.006865    -3.688627     0.579114
 C    -2.247115    -2.703345     0.014535
 C    -2.047759    -2.368461    -1.381324
 C    -2.578003    -2.916195    -2.516069
 C    -2.347769    -2.294587    -3.714952
 C    -1.622823    -1.132342    -3.770634
 C    -1.084757    -0.590418    -2.630703
 C    -1.272985    -1.235340    -1.443769
 H    -2.421042     4.210419     0.274280
 H    -1.224711     6.292411     0.140192
 H     1.215914     6.294105    -0.139011
 H     2.415109     4.213780    -0.273392
 H     0.539679     0.327132     2.676591
 H     1.484762    -0.639897     4.706640
 H     2.763220    -2.700734     4.609592
 H     3.186124    -3.791764     2.470319
 H     3.505439    -4.410053     0.026120
 H     3.744687    -4.463475    -2.402852
 H     2.689131    -2.759711    -3.773364
 H     1.330729    -1.028026    -2.765266
 H    -1.329428    -1.031017     2.765350
 H    -2.685285    -2.765181     3.772717
 H    -3.737984    -4.470123     2.401487
 H    -3.498646    -4.415442    -0.027415
 H    -3.180267    -3.795555    -2.471447
 H    -2.759328    -2.702739    -4.610168
 H    -1.484348    -0.639696    -4.706255
 H    -0.540694     0.327838    -2.675786
