   54
scf done: -1306.709333
 C    -0.000052     0.628000     0.813448
 C    -0.000102     0.628287    -0.812781
 C     0.000483    -1.868695     0.658163
 C     0.000376    -1.868554    -0.659586
 C    -1.205931    -0.025005     1.416883
 C    -2.254256     0.626336     1.992158
 H    -2.270138     1.692683     2.026453
 C    -3.297207    -0.099062     2.520225
 H    -4.116541     0.409973     2.975274
 C    -3.291565    -1.462131     2.461929
 H    -4.105634    -2.015955     2.871826
 C    -2.241804    -2.126959     1.872016
 H    -2.237494    -3.191743     1.813185
 C    -1.208707    -1.409135     1.357127
 C     1.206185    -0.024529     1.416728
 C     2.254187     0.627276     1.992061
 H     2.269569     1.693634     2.026388
 C     3.297379    -0.097672     2.520274
 H     4.116427     0.411712     2.975444
 C     3.292399    -1.460742     2.461866
 H     4.106676    -2.014208     2.871834
 C     2.243038    -2.126022     1.871760
 H     2.239216    -3.190807     1.812887
 C     1.209606    -1.408649     1.356908
 C    -1.206143    -0.024251    -1.416405
 C    -2.254563     0.627628    -1.990945
 H    -2.270346     1.694003    -2.024434
 C    -3.297467    -0.097274    -2.519767
 H    -4.116860     0.412162    -2.974260
 C    -3.291810    -1.460399    -2.462809
 H    -4.105859    -2.013806    -2.873303
 C    -2.242169    -2.125766    -1.873338
 H    -2.237867    -3.190605    -1.815487
 C    -1.208990    -1.408429    -1.357926
 C     1.206071    -0.023812    -1.416562
 C     2.254150     0.628542    -1.991227
 H     2.269445     1.694928    -2.024696
 C     3.297370    -0.095892    -2.520008
 H     4.116533     0.413879    -2.974529
 C     3.292363    -1.459026    -2.462908
 H     4.106671    -2.012088    -2.873367
 C     2.242943    -2.124851    -1.873566
 H     2.239097    -3.189691    -1.815743
 C     1.209481    -1.407975    -1.358073
 C    -0.000359     2.112696     0.681021
 C    -0.000880     3.264574     1.411959
 H    -0.000926     3.276130     2.478827
 C    -0.001262     4.433748     0.688891
 H    -0.001621     5.368627     1.202777
 C    -0.001265     4.433985    -0.687194
 H    -0.001594     5.369015    -1.200807
 C    -0.000807     3.265033    -1.410569
 H    -0.000812     3.276876    -2.477431
 C    -0.000349     2.112941    -0.679888
