   74
scf done: -1244.271676
 C    -0.598216    -0.028856    -0.121218
 C    -0.936806    -1.506065    -0.411228
 C     1.000461     0.183747     0.170369
 C    -2.338387    -1.699290    -0.951695
 C     1.168528     1.301907     1.190571
 C    -1.647861     0.371058     0.978625
 C     1.780069     0.574645    -1.104217
 C    -1.701407     1.847437     1.329215
 C    -2.391428     0.574054    -1.828515
 C     2.684906    -1.704589    -1.510515
 C    -0.990742     0.850919    -1.326175
 C    -3.076537     0.122794     0.438816
 C    -1.521057    -0.501547     2.206317
 C     3.195459     1.030680    -0.778792
 C     3.270833    -0.557473     1.049881
 C    -0.929196     2.330373    -1.009565
 C    -3.332215    -1.316766     0.111626
 C     1.844068    -1.002115     0.717661
 C    -3.382006     0.967179    -0.767155
 C     3.983349    -0.117498    -0.205771
 C     2.580095     1.720082     1.474815
 C     1.891690    -0.564119    -2.093058
 C     4.076078    -1.233898    -1.202034
 C     2.041147    -2.170176    -0.231546
 C    -1.794931    -1.949457     1.879180
 C     3.315758     0.553180     2.052578
 C    -1.900781     2.689584     0.088308
 C     3.209380     2.174603     0.191236
 C    -2.554151    -0.872197    -2.181525
 C    -3.283090     2.426366    -0.437029
 C    -0.845977    -2.403112     0.808053
 C    -3.190122    -2.132634     1.360306
 H    -0.338480     0.643345    -2.153580
 H     2.719357    -2.519668    -2.215122
 H     2.555483     2.533698     2.182222
 H     2.851920     0.247574     2.977701
 H    -1.843136    -1.150392    -2.944759
 H     0.137353    -2.465214     1.213707
 H    -4.382141     0.737052    -1.104483
 H    -2.545841     1.181139    -2.708767
 H     0.923002    -0.908261    -2.407723
 H    -1.206957     2.874010    -1.900380
 H     4.570671    -0.890897    -2.097735
 H     4.664139    -2.045677    -0.803052
 H    -3.742628     0.408618     1.242071
 H    -2.560701     1.987374     1.968709
 H    -4.025248     2.689710     0.300305
 H     4.223502     2.504777     0.354836
 H     0.063908     2.656070    -0.774063
 H     1.312268     1.408764    -1.590202
 H     2.663756     3.016016    -0.208223
 H    -3.538463    -1.050380    -2.586383
 H    -0.276611    -1.867887    -1.175219
 H     2.385997    -0.202032    -2.982056
 H     1.424287    -1.340192     1.649272
 H     3.649495     1.342217    -1.708516
 H    -3.372939    -3.177198     1.161409
 H    -3.920602    -1.813173     2.087505
 H    -0.541214    -0.413297     2.644775
 H    -2.449823    -2.745725    -1.195499
 H     4.340196     0.806310     2.277841
 H     0.716544     0.998754     2.117580
 H    -1.650383    -2.547327     2.764649
 H    -3.476563     3.024756    -1.313918
 H     0.649560     2.174579     0.863678
 H     2.693543    -2.881552     0.252333
 H     1.143525    -2.705880    -0.448174
 H    -0.869674     2.180589     1.909343
 H    -1.794279     3.732851     0.338527
 H    -4.334715    -1.414606    -0.278896
 H     3.774020    -1.422198     1.456408
 H    -1.105557    -3.406269     0.502832
 H    -2.222856    -0.157644     2.952407
 H     4.974807     0.224360     0.053536
