   23
scf done:  -739.639899
 C     7.850130     5.674087     9.869251
 C     8.043688     6.929803    10.348702
 C     7.039713     7.849885    10.208384
 C     5.868366     7.487180     9.591320
 C     5.739544     6.218555     9.135574
 N     6.719095     5.343861     9.279731
 C     6.529537     4.010420     8.777451
 C     7.535507     2.887882     8.854776
 C     5.454745     3.037886     9.209513
 C     6.257113     3.628159     7.339625
 C     6.300712     2.348393     8.154604
 I     6.046250     0.434234     7.441175
 H     8.584871     4.908529     9.942829
 H     8.964880     7.175276    10.821427
 H     7.166401     8.842241    10.575994
 H     5.067389     8.176299     9.465196
 H     4.862394     5.864985     8.647620
 H     7.738583     2.477693     9.826278
 H     8.416349     2.976313     8.246821
 H     4.444158     3.263563     8.925602
 H     5.525206     2.648474    10.206731
 H     7.056173     3.774757     6.638868
 H     5.298995     3.892424     6.933428
