   28
scf done:  -442.649116
 B     0.372958     6.675722     5.277312
 H     0.835137     6.125046     6.203032
 B    -1.953862     7.576595     3.916301
 H    -3.114146     7.573550     3.754178
 B    -1.169807     6.179360     4.607588
 H    -1.807871     5.245858     4.915185
 B    -0.953219     8.112227     2.592674
 H    -1.353530     8.421782     1.537522
 B     0.314405     5.885545     3.723258
 H     0.649211     4.823060     3.370385
 B     0.548068     8.404116     4.967271
 H     1.148287     9.114763     5.680659
 B     1.377754     7.243938     3.958060
 H     2.522165     7.071289     3.803088
 B     0.596977     8.624483     3.224108
 H     1.217472     9.390288     2.592909
 B    -1.025052     7.745352     5.388288
 H    -1.560724     7.963905     6.407989
 B    -0.895113     8.955060     4.106997
 H    -1.316850    10.045396     4.192908
 C     0.412134     7.102643     2.591040
 C    -1.070504     6.500039     2.976113
 N     0.940592     6.747364     1.361755
 N    -1.610596     5.669223     2.003568
 H    -1.835608     4.774119     2.366614
 H    -2.407815     6.068817     1.569774
 H     0.818994     7.465394     0.689156
 H     0.523642     5.907565     1.029566
