   72
scf done: -1218.809054
 N     1.486316     0.475945     0.280903
 N    -1.451889     0.454273     0.199283
 C     4.122133    -2.984851     0.399911
 H     3.938996    -3.984507     0.729897
 C     3.066652    -2.216355    -0.014915
 C    -3.303829    -0.896769    -0.515133
 C     3.291213    -0.923075    -0.439457
 C     0.857158     1.696044     0.217143
 C     2.143713    -0.076809    -0.870054
 H     2.489767     0.703624    -1.523059
 H     1.439776    -0.665155    -1.431051
 C     5.403099    -2.498309     0.405709
 B    -1.400995     3.013116    -0.657664
 C    -0.843777     1.686186     0.192627
 B     0.031604     2.127563    -1.167760
 C    -5.546041    -1.151980     0.226639
 H    -6.488149    -0.715207     0.478905
 C     4.571746    -0.410572    -0.421172
 C    -3.129975    -2.259118    -0.422969
 C     5.607125    -1.207210    -0.002247
 H     6.596980    -0.805532     0.010032
 C    -2.181756    -0.017460    -0.946011
 H    -1.517861    -0.553614    -1.598153
 H    -2.571390     0.809078    -1.511526
 B     1.435971     3.026979    -0.615945
 B    -0.021633     2.085497     1.594890
 C    -4.525114    -0.338836    -0.185154
 B     0.022814     3.882548    -1.178128
 C    -4.175293    -3.047289    -0.008393
 H    -4.032097    -4.103702     0.060032
 C    -5.389776    -2.511930     0.320464
 B    -1.431335     2.984601     1.079187
 B     1.405266     2.988878     1.121433
 C     6.539054    -3.353928     0.826270
 H     6.907093    -3.930984    -0.004617
 H     6.244683    -4.043673     1.595726
 H     7.355354    -2.764352     1.200370
 C     1.692757    -2.775527     0.001941
 H     1.661675    -3.700404     0.546687
 H     1.342082    -2.974082    -0.996962
 H     1.004150    -2.089282     0.460209
 B    -0.875817     4.417764     0.245364
 C    -1.832898    -2.890044    -0.771660
 H    -1.803953    -3.910998    -0.440033
 H    -1.012899    -2.368511    -0.316509
 H    -1.672044    -2.889235    -1.836650
 B     0.871294     4.423640     0.273769
 C    -4.752095     1.125044    -0.287036
 H    -5.699847     1.392827     0.140292
 H    -4.755441     1.448667    -1.313971
 H    -3.991137     1.688115     0.222458
 B    -0.024364     3.830668     1.676842
 C    -6.510318    -3.367357     0.781130
 H    -6.730804    -3.184202     1.818285
 H    -6.276494    -4.409900     0.673309
 H    -7.405604    -3.167664     0.220114
 C     4.853534     0.987753    -0.835614
 H     5.884646     1.231874    -0.663315
 H     4.254315     1.693458    -0.287984
 H     4.654657     1.139766    -1.882446
 H     0.043193     1.382725    -2.067207
 H    -2.432923     2.797131     1.657606
 H    -0.028814     1.286175     2.447501
 H     1.508203     5.407931     0.300883
 H    -2.380089     2.888880    -1.285160
 H     2.390064     2.802988     1.729126
 H    -1.520354     5.397465     0.246367
 H     0.033211     4.469528    -2.193024
 H     2.436497     2.897099    -1.208446
 H    -0.040120     4.375520     2.714957
 H     2.015013     0.378052     1.112005
 H    -1.889219     0.246665     1.061989
