   55
scf done: -1021.084577
 B    -2.195236    -0.036319    -1.424893
 H    -1.415059    -0.110609    -2.289565
 B    -2.979400     1.427416    -0.943340
 H    -2.791366     2.393897    -1.574079
 B    -2.925582     1.526316     0.813056
 H    -2.739013     2.558828     1.329929
 B    -2.130406     0.116408     1.446175
 H    -1.311914     0.136090     2.275152
 B    -2.998615    -1.309752     0.991899
 H    -2.839059    -2.287006     1.615348
 B    -3.031054    -1.405117    -0.766960
 H    -2.902781    -2.443570    -1.290842
 B    -3.913948    -0.001771    -1.383571
 H    -4.524676    -0.056236    -2.382594
 B    -3.845046     0.166562     1.470896
 H    -4.413782     0.249509     2.492510
 B    -4.421909    -0.790781     0.108401
 H    -5.419718    -1.403403     0.167538
 B    -4.384150     0.974577    -0.000231
 H    -5.353222     1.634306    -0.008811
 N    -0.334555     1.159047    -0.150086
 N    -0.385197    -1.155620     0.090178
 C    -1.683536     0.809712    -0.053858
 C    -1.723907    -0.751538     0.054947
 C     0.422013    -0.042717    -0.356578
 H     1.340458     0.000685     0.195613
 H     0.665509    -0.160178    -1.401609
 C    -0.081641    -2.390788    -0.552212
 H    -0.208674    -2.318340    -1.624964
 H    -0.778624    -3.128350    -0.196558
 C     1.305636    -2.824613    -0.235845
 C     1.757610    -2.796064     1.061504
 H     1.110357    -2.433137     1.828638
 C     3.020935    -3.220618     1.362620
 H     3.362683    -3.194911     2.372604
 C     3.848257    -3.680534     0.370513
 H     4.834303    -4.011041     0.606296
 C     3.405020    -3.709698    -0.921942
 H     4.044277    -4.061611    -1.699589
 C     2.138756    -3.279325    -1.222724
 H     1.799006    -3.298150    -2.234883
 C     0.187666     2.080245     0.808285
 H     0.318322     1.625064     1.778854
 H    -0.529813     2.871774     0.921300
 C     1.479669     2.653945     0.344031
 C     2.512900     2.837672     1.224694
 H     2.399907     2.536152     2.242944
 C     3.690161     3.403084     0.809937
 H     4.486871     3.539927     1.505515
 C     3.844518     3.782615    -0.494316
 H     4.761382     4.218464    -0.820713
 C     2.816868     3.595477    -1.381833
 H     2.932668     3.887957    -2.400944
 C     1.641792     3.034721    -0.965739
 H     0.840636     2.882744    -1.653800
