   50
scf done:  -980.540039
 B     5.733856     3.456278     3.619279
 B     4.221575     4.330892     3.643065
 B     3.620849     4.330864     5.282583
 B     5.738531     5.201682     3.606558
 B     4.421398     5.750416     4.646134
 C     4.484068     3.029410     4.669098
 C     2.778745     1.672248     4.044603
 H     2.175535     2.534643     3.824119
 N     3.943165     1.770993     4.470756
 C     2.159070     0.381638     3.817452
 C     0.872523     0.329798     3.346318
 H     0.341772     1.235866     3.152128
 C     0.267641    -0.878370     3.124575
 H    -0.732689    -0.916054     2.758231
 C     0.953287    -2.034374     3.375460
 H     0.485440    -2.977307     3.203977
 C     2.242170    -1.986962     3.847449
 H     2.771234    -2.892141     4.041019
 C     2.844914    -0.784105     4.068388
 H     3.843997    -0.720025     4.434250
 H     2.482401     4.154522     5.492907
 H     6.028278     2.665353     2.816059
 H     3.488447     4.154324     2.747111
 H     6.090576     5.774313     2.646153
 H     3.820300     6.732843     4.425963
 B     4.759655     3.456282     6.277905
 B     6.271936     4.330895     6.254117
 B     6.872661     4.330863     4.614599
 B     4.754980     5.201686     6.290622
 B     6.072113     5.750417     5.251045
 C     6.009443     3.029410     5.228088
 C     7.714765     1.672252     5.852587
 H     8.317975     2.534648     6.073068
 N     6.550346     1.770994     5.426433
 C     8.334442     0.381643     6.079740
 C     9.620989     0.329806     6.550874
 H    10.151739     1.235875     6.745062
 C    10.225873    -0.878362     6.772619
 H    11.226203    -0.916043     7.138962
 C     9.540228    -2.034367     6.521735
 H    10.008076    -2.977299     6.693220
 C     8.251345    -1.986957     6.049747
 H     7.722282    -2.892137     5.856178
 C     7.648600    -0.784101     5.828805
 H     6.649517    -0.720023     5.462944
 H     8.011109     4.154520     4.404276
 H     4.465233     2.665358     7.081128
 H     7.005063     4.154330     7.150071
 H     4.402935     5.774319     7.251025
 H     6.673211     6.732844     5.471213
