   68
FINAL HEAT OF FORMATION = -1616.368545
 C     9.222519    11.608271    15.172371
 C     8.169216    12.503154    15.043265
 C     6.957309    12.334412    15.791721
 C     6.826994    11.298433    16.711546
 C     7.946189    10.447698    16.870078
 C     7.604236     9.250547    17.536457
 C     8.526020     8.207446    17.470314
 C     9.726711     8.348817    16.707137
 C     9.993419     9.512393    15.988856
 C     9.073881    10.560289    16.092334
 C     5.726871    10.607602    17.413764
 C     6.183524     9.407353    17.899661
 C    10.579785    11.486249    14.492813
 C    11.505223    12.411074    15.325487
 C    11.089253    12.732002    16.636655
 C    11.859827    13.462539    17.533788
 C    13.124652    13.905939    17.155092
 C    13.558840    13.621650    15.870508
 C    12.773821    12.909307    14.934780
 C    13.365676    12.815711    13.613789
 C    12.813146    12.493338    12.430820
 C    11.465351    12.073902    12.084675
 C    11.217752    12.026529    10.694215
 C    10.015717    11.587851    10.158975
 C     9.008269    11.185656    11.033047
 C     9.228733    11.240387    12.406451
 C    10.442712    11.670728    12.979437
 C    10.971097     9.790465    14.843488
 C    12.411380     9.706412    15.356436
 C    12.591035     9.821652    16.745805
 C    13.838145     9.978728    17.342752
 C    14.980070    10.020345    16.545516
 C    14.834852     9.883227    15.172527
 C    13.577371     9.717133    14.552658
 C    13.620908     9.605659    13.105321
 C    12.683189     9.181067    12.239859
 C    11.334707     8.699856    12.476345
 C    10.788540     7.982679    11.388702
 C     9.524352     7.417406    11.421360
 C     8.759340     7.581834    12.574400
 C     9.268037     8.310069    13.647635
 C    10.555836     8.891628    13.651201
 H     8.217288    13.306947    14.307028
 H     6.114147    12.993091    15.566265
 H     8.310395     7.234628    17.920918
 H    10.385536     7.483841    16.609272
 H     4.700333    10.966021    17.489589
 H    10.122611    12.399276    16.995014
 H    11.461537    13.671497    18.528373
 H    13.754157    14.473331    17.842596
 H    14.536410    13.978010    15.540699
 H    14.414095    13.122748    13.578227
 H    13.474927    12.571509    11.564005
 H    12.020628    12.338028    10.022676
 H     9.872354    11.548908     9.077215
 H     8.057453    10.805340    10.655326
 H     8.430162    10.888786    13.052685
 H    11.714358     9.836308    17.386955
 H    13.903275    10.098862    18.425392
 H    15.967778    10.167969    16.985837
 H    15.717713     9.914028    14.530549
 H    14.588724     9.867451    12.670418
 H    12.984066     9.142559    11.189595
 H    11.405167     7.871201    10.494439
 H     9.143284     6.861491    10.562420
 H     7.754683     7.159938    12.642045
 H     8.609916     8.438179    14.500862
 H     5.580046     8.666475    18.424466
