   70
FINAL HEAT OF FORMATION = -1617.599927
 H     6.255624     6.035102    23.036256
 C     7.935948     4.637161    25.400812
 C     8.155993     6.018792    25.510426
 C     7.237904     6.825013    24.818623
 C     7.416050     8.195548    24.902749
 C     6.714739     4.435459    24.515466
 C     6.247946     5.892271    24.128772
 H     6.740655     8.886605    24.392878
 H     6.959713     3.842284    23.619302
 H     5.918363     3.885634    25.042940
 H     5.213765     6.077692    24.460893
 H    12.680774     7.773124    23.054212
 C    10.107971     5.714233    26.936019
 C     9.891914     4.340986    26.838448
 C     8.808036     3.797093    26.072268
 C     8.503863     8.736796    25.664327
 C     9.391162     7.908581    26.331055
 C     9.202486     6.534978    26.251981
 C    11.165238     6.573920    27.633660
 C    11.144539     6.375170    29.160426
 C    10.287719     5.432896    29.751421
 C    10.145403     5.319298    31.132125
 C    10.848623     6.179478    31.976478
 C    11.712301     7.110557    31.414746
 C    11.907128     7.201789    30.022545
 C    12.884273     8.176736    29.565847
 C    13.647166     8.124323    28.455986
 C    13.682397     7.080324    27.444334
 C    14.907304     6.904273    26.770879
 C    15.086112     5.909693    25.818635
 C    14.014630     5.068376    25.516845
 C    12.782575     5.261955    26.137291
 C    12.572068     6.271626    27.090812
 C    10.624841     8.194351    27.169624
 C    10.070078     8.928005    28.395990
 C     8.973158     8.279123    29.002142
 C     8.347144     8.753962    30.145444
 C    12.599511     8.411252    23.935612
 C    11.742550     8.051021    24.965808
 C    11.603458     8.799819    26.154645
 H    10.554756     3.636259    27.343960
 H     8.693269     2.710797    26.031693
 H     9.673265     4.797103    29.119949
 H     9.457360     4.576575    31.541327
 H    10.723138     6.125083    33.059395
 H    12.275098     7.789468    32.058443
 H    13.070715     9.002527    30.256392
 H    14.393497     8.912297    28.330632
 H    15.734111     7.571143    27.023380
 H    16.047465     5.793320    25.314785
 H    14.121118     4.278212    24.770573
 H    11.951611     4.636688    25.823701
 H     8.596866     7.355982    28.568090
 H     7.519533     8.190795    30.580202
 H    11.163513     7.140023    24.839081
 H    14.023682     9.897161    23.245863
 C     8.788556     9.946734    30.721642
 C     9.838102    10.624273    30.121819
 C    10.495458    10.147307    28.960937
 C    11.558728    11.007055    28.466346
 C    12.314446    10.946615    27.352738
 C    12.339567     9.998827    26.250080
 C    13.198149    10.359724    25.182153
 C    13.345089     9.586311    24.042379
 H     8.624546     9.820166    25.705600
 H     8.313227    10.345319    31.619762
 H    10.181211    11.569320    30.547886
 H    11.747960    11.870026    29.111135
 H    13.025612    11.768204    27.227828
 H    13.759687    11.291708    25.274885
