  212
scf done: -3353.774484
 C     0.829240    -0.005188     0.011754
 C    -0.829240     0.005188    -0.011754
 C     1.457634     0.323303    -1.382399
 C    -1.457634    -0.323303     1.382399
 C    -1.423136     1.390665    -0.427543
 C     1.423136    -1.390665     0.427543
 C     1.412749     1.045353     1.010579
 C    -1.412749    -1.045353    -1.010579
 C     1.018913     1.086078     2.356850
 C    -1.018913    -1.086078    -2.356850
 C    -1.053753    -1.437370     2.142870
 C     1.053753     1.437370    -2.142870
 C     1.030369    -2.586235    -0.192551
 C    -1.030369     2.586235     0.192551
 C     2.459529     1.892002     0.628216
 C    -2.459529    -1.892002    -0.628216
 C    -2.558649     0.398219     1.846666
 C     2.558649    -0.398219    -1.846666
 C     2.504425    -1.459792     1.314206
 C    -2.504425     1.459792    -1.314206
 C     1.583162     1.975340     3.276744
 C    -1.583162    -1.975340    -3.276744
 C    -1.687393    -1.795100     3.332991
 C     1.687393     1.795100    -3.332991
 C     1.651098    -3.810269     0.078333
 C    -1.651098     3.810269    -0.078333
 C     3.084191     2.770422     1.525986
 C    -3.084191    -2.770422    -1.525986
 C    -3.254367     0.047859     3.016906
 C     3.254367    -0.047859    -3.016906
 C     3.179264    -2.658575     1.587847
 C    -3.179264     2.658575    -1.587847
 C     2.615265     2.822111     2.843194
 C    -2.615265    -2.822111    -2.843194
 C    -2.801159    -1.044639     3.754157
 C     2.801159     1.044639    -3.754157
 C     2.733274    -3.831274     0.970242
 C    -2.733274     3.831274    -0.970242
 H     0.259178     0.401740     2.706419
 H    -0.259178    -0.401740    -2.706419
 H    -0.227176    -2.037802     1.795139
 H     0.227176     2.037802    -1.795139
 H     0.226652    -2.568924    -0.914956
 H    -0.226652     2.568924     0.914956
 H     2.826995     1.854573    -0.390921
 H    -2.826995    -1.854573     0.390921
 H    -2.917829     1.247135     1.276593
 H     2.917829    -1.247135    -1.276593
 H     2.861322    -0.550751     1.785850
 H    -2.861322     0.550751    -1.785850
 C     1.100627     1.936391     4.736825
 C    -1.100627    -1.936391    -4.736825
 C    -1.221099    -3.004387     4.158491
 C     1.221099     3.004387    -4.158491
 C     1.112621    -5.077906    -0.604134
 C    -1.112621     5.077906     0.604134
 C     4.306865     3.568669     1.044908
 C    -4.306865    -3.568669    -1.044908
 C    -4.493971     0.867481     3.403314
 C     4.493971    -0.867481    -3.403314
 C     4.399512    -2.619791     2.520730
 C    -4.399512     2.619791    -2.520730
 H     3.074463     3.508697     3.548426
 H    -3.074463    -3.508697    -3.548426
 H    -3.316787    -1.330768     4.668387
 H     3.316787     1.330768    -4.668387
 H     3.235750    -4.770991     1.179286
 H    -3.235750     4.770991    -1.179286
 C     5.095463    -0.415970    -4.742169
 C    -5.095463     0.415970     4.742169
 C    -4.986475     4.016663    -2.771513
 C     4.986475    -4.016663     2.771513
 C     4.788023     4.583303     2.092899
 C    -4.788023    -4.583303    -2.092899
 C     5.560018    -0.692320    -2.299473
 C    -5.560018     0.692320     2.299473
 C    -5.489053     1.739125    -1.870234
 C     5.489053    -1.739125     1.870234
 C     5.448045     2.563687     0.768194
 C    -5.448045    -2.563687    -0.768194
 C     4.118276    -2.359897    -3.517311
 C    -4.118276     2.359897     3.517311
 C    -3.996570     2.010203    -3.878754
 C     3.996570    -2.010203     3.878754
 C     3.984482     4.333491    -0.255003
 C    -3.984482    -4.333491     0.255003
 C     1.071185     2.602796    -5.640365
 C    -1.071185    -2.602796     5.640365
 C    -1.966230     6.315894     0.293327
 C     1.966230    -6.315894    -0.293327
 C     1.648473     3.112454     5.559659
 C    -1.648473    -3.112454    -5.559659
 C    -0.133311     3.542460    -3.671590
 C     0.133311    -3.542460     3.671590
 C     0.326137     5.328581     0.106451
 C    -0.326137    -5.328581    -0.106451
 C    -0.439886     1.982955     4.793812
 C     0.439886    -1.982955    -4.793812
 C     2.273372     4.126014    -4.032168
 C    -2.273372    -4.126014     4.032168
 C    -1.083578     4.874498     2.132945
 C     1.083578    -4.874498    -2.132945
 C     1.586626     0.616431     5.372348
 C    -1.586626    -0.616431    -5.372348
 H     0.711240     3.460534    -6.231394
 H    -0.711240    -3.460534     6.231394
 H    -1.547847     7.194539     0.808556
 H     1.547847    -7.194539    -0.808556
 H     1.248203     3.067584     6.584491
 H    -1.248203    -3.067584    -6.584491
 H     2.024643     2.274769    -6.080491
 H    -2.024643    -2.274769     6.080491
 H    -3.005646     6.190102     0.635230
 H     3.005646    -6.190102    -0.635230
 H     2.746582     3.089136     5.634303
 H    -2.746582    -3.089136    -5.634303
 H     0.347183     1.780965    -5.752389
 H    -0.347183    -1.780965     5.752389
 H    -1.984206     6.541187    -0.784274
 H     1.984206    -6.541187     0.784274
 H     1.354175     4.080644     5.124661
 H    -1.354175    -4.080644    -5.124661
 H     1.979808     5.003030    -4.632829
 H    -1.979808    -5.003030     4.632829
 H    -0.716637     5.786362     2.632144
 H     0.716637    -5.786362    -2.632144
 H     1.231071     0.532321     6.412841
 H    -1.231071    -0.532321    -6.412841
 H     2.375009     4.446441    -2.983388
 H    -2.375009    -4.446441     2.983388
 H    -0.416470     4.049164     2.418242
 H     0.416470    -4.049164    -2.418242
 H     1.212982    -0.253953     4.812514
 H    -1.212982     0.253953    -4.812514
 H     3.262980     3.790698    -4.380049
 H    -3.262980    -3.790698     4.380049
 H    -2.089514     4.650269     2.521253
 H     2.089514    -4.650269    -2.521253
 H     2.686699     0.565298     5.379545
 H    -2.686699    -0.565298    -5.379545
 H    -0.455107     4.378730    -4.311894
 H     0.455107    -4.378730     4.311894
 H     0.759880     6.212040     0.604392
 H    -0.759880    -6.212040    -0.604392
 H    -0.779929     1.952565     5.842046
 H     0.779929    -1.952565    -5.842046
 H    -0.913914     2.768413    -3.705616
 H     0.913914    -2.768413     3.705616
 H     0.342574     5.507447    -0.980576
 H    -0.342574    -5.507447     0.980576
 H    -0.823854     2.907260     4.337010
 H     0.823854    -2.907260    -4.337010
 H    -0.086197     3.915537    -2.639208
 H     0.086197    -3.915537     2.639208
 H     0.974344     4.466829     0.318324
 H    -0.974344    -4.466829    -0.318324
 H    -0.902942     1.134464     4.272642
 H     0.902942    -1.134464    -4.272642
 H     5.972285    -1.036139    -4.985061
 H    -5.972285     1.036139     4.985061
 H    -5.848722     3.941287    -3.452224
 H     5.848722    -3.941287     3.452224
 H     5.646255     5.148776     1.697727
 H    -5.646255    -5.148776    -1.697727
 H     4.372565    -0.519303    -5.566565
 H    -4.372565     0.519303     5.566565
 H    -4.249214     4.688943    -3.237633
 H     4.249214    -4.688943     3.237633
 H     3.997252     5.306222     2.348192
 H    -3.997252    -5.306222    -2.348192
 H     5.429926     0.632528    -4.707886
 H    -5.429926    -0.632528     4.707886
 H    -5.338778     4.486437    -1.840124
 H     5.338778    -4.486437     1.840124
 H     5.116089     4.091299     3.021466
 H    -5.116089    -4.091299    -3.021466
 H     6.465925    -1.273004    -2.540380
 H    -6.465925     1.273004     2.540380
 H    -6.379108     1.682710    -2.518696
 H     6.379108    -1.682710     2.518696
 H     6.355189     3.090741     0.428421
 H    -6.355189    -3.090741    -0.428421
 H     5.846970     0.366797    -2.198476
 H    -5.846970    -0.366797     2.198476
 H    -5.798344     2.155708    -0.898273
 H     5.798344    -2.155708     0.898273
 H     5.699441     1.997263     1.679268
 H    -5.699441    -1.997263    -1.679268
 H     5.187857    -1.033744    -1.321823
 H    -5.187857     1.033744     1.321823
 H    -5.129970     0.713341    -1.696754
 H     5.129970    -0.713341     1.696754
 H     5.162854     1.838948    -0.009847
 H    -5.162854    -1.838948     0.009847
 H     5.006059    -2.957421    -3.781980
 H    -5.006059     2.957421     3.781980
 H    -4.868656     1.960516    -4.551324
 H     4.868656    -1.960516     4.551324
 H     4.881953     4.862319    -0.615135
 H    -4.881953    -4.862319     0.615135
 H     3.718156    -2.754133    -2.571610
 H    -3.718156     2.754133     2.571610
 H    -3.600937     0.991161    -3.765656
 H     3.600937    -0.991161     3.765656
 H     3.651267     3.660589    -1.058284
 H    -3.651267    -3.660589     1.058284
 H     3.355002    -2.513738    -4.295640
 H    -3.355002     2.513738     4.295640
 H    -3.220673     2.619476    -4.368458
 H     3.220673    -2.619476     4.368458
 H     3.193005     5.079475    -0.088544
 H    -3.193005    -5.079475     0.088544
