   66
FINAL HEAT OF FORMATION = -2159.281635
Cl     9.407680     8.845372     3.539204
Cl     4.435676    10.680635     0.099953
 C     7.103149    10.711593     0.780082
 C     7.704531    11.982119     0.221635
 C     9.159224    11.315686     0.858219
 C     8.217117    10.330733     1.552039
 C     8.122155     9.263280     2.411732
 C     6.936449     8.454015     2.413057
 C     6.828661     7.252824     3.166412
 C     5.698281     6.465639     3.110003
 C     4.600310     6.848291     2.308490
 C     4.655634     8.015526     1.580392
 C     5.812209     8.841025     1.598602
 C     5.902979    10.044918     0.834562
 C     6.973128    13.171948     0.926763
 C     6.110065    12.944220     2.016067
 C     5.359998    13.969389     2.589673
 C     5.443559    15.270013     2.092571
 C     6.286349    15.518589     1.010060
 C     7.026547    14.484862     0.433049
 C     7.650931    12.251143    -1.279854
 C     6.691812    11.664688    -2.117286
 C     6.645058    11.954318    -3.481902
 C     7.557727    12.843165    -4.051740
 C     8.516343    13.440307    -3.232469
 C     8.555092    13.148074    -1.867938
 C    10.011253    12.251262     1.803460
 C    10.353511    13.588502     1.121034
 C    11.338604    11.638397     2.305483
 C     9.214803    12.569602     3.089555
 C     9.969367    10.406982    -0.240040
 C     9.085227     9.714371    -1.316827
 C    11.050672    11.181442    -1.019504
 C    10.655200     9.203781     0.459615
 H     7.671658     6.945606     3.782038
 H     5.655155     5.537955     3.683797
 H     3.709848     6.218352     2.260687
 H     3.813126     8.314125     0.958461
 H     6.012089    11.946783     2.437135
 H     4.697790    13.738162     3.426556
 H     4.850319    16.073599     2.533063
 H     6.360180    16.523424     0.589191
 H     7.629188    14.716844    -0.440323
 H     5.983717    10.946247    -1.719674
 H     5.889810    11.469790    -4.104658
 H     7.524544    13.065917    -5.120142
 H     9.245162    14.136193    -3.653471
 H     9.315546    13.621051    -1.253416
 H     9.451777    14.144388     0.842270
 H    10.979624    13.456257     0.230046
 H    10.916079    14.219531     1.827053
 H    12.052340    11.409989     1.506696
 H    11.818923    12.374663     2.969157
 H    11.170853    10.730929     2.896993
 H     9.852318    13.155764     3.769763
 H     8.920963    11.653356     3.620095
 H     8.314609    13.156538     2.895697
 H     8.164134     9.274183    -0.911356
 H     8.819436    10.370555    -2.147913
 H     9.674652     8.886174    -1.740080
 H    10.632753    12.019053    -1.586501
 H    11.507687    10.495221    -1.750385
 H    11.860002    11.556330    -0.382402
 H    11.348024     8.741420    -0.260576
 H    11.227829     9.455605     1.352609
 H     9.919162     8.435387     0.732036
