   58
FINAL HEAT OF FORMATION = -1979.715190
 I    -1.578560    -0.243661     5.084118
 I     0.936054    -3.988762    -0.378722
 C     0.896587    -3.038390     4.523972
 C     1.069792    -4.113798     3.269550
 C     0.556649    -2.969638     2.431270
 C     0.234352    -2.685080     1.140045
 C    -0.663500    -1.594310     0.898197
 C    -1.104862    -1.267881    -0.410545
 C    -2.076389    -0.316921    -0.628973
 C    -2.644801     0.369163     0.465233
 C    -2.223302     0.100166     1.750966
 C    -1.231505    -0.877450     2.025671
 C    -0.811398    -1.206364     3.361889
 C     0.086961    -2.217405     3.526302
 C     0.441003    -3.500530     5.885781
 C    -0.718275    -4.182025     6.246263
 C    -0.915054    -4.517817     7.590242
 C     0.034441    -4.171497     8.557636
 C     1.195147    -3.477223     8.201069
 C     1.395048    -3.139961     6.862394
 C     2.464988    -2.370636     6.211964
 C     3.573214    -1.702461     6.732945
 C     4.369829    -0.942779     5.870020
 C     4.056739    -0.838384     4.508966
 C     2.944904    -1.506372     3.985851
 C     2.174737    -2.285642     4.839730
 C     0.037835    -5.234684     3.273313
 C    -1.347406    -5.170609     3.131225
 C    -2.090420    -6.358634     3.137852
 C    -1.453375    -7.597829     3.269530
 C    -0.060507    -7.669204     3.354088
 C     0.679239    -6.484089     3.333900
 C     2.121980    -6.264583     3.224168
 C     3.155969    -7.193704     3.133915
 C     4.446683    -6.732383     2.862119
 C     4.679767    -5.367644     2.663002
 C     3.638776    -4.435797     2.767813
 C     2.359875    -4.880786     3.078735
 H    -0.677989    -1.817247    -1.250024
 H    -2.412059    -0.105616    -1.646204
 H    -3.425670     1.112492     0.294464
 H    -2.669566     0.633117     2.589589
 H    -1.466347    -4.451184     5.503260
 H    -1.821619    -5.051074     7.883267
 H    -0.136981    -4.438730     9.602220
 H     1.926050    -3.195523     8.960555
 H     3.800510    -1.750531     7.799078
 H     5.233526    -0.405426     6.265865
 H     4.673000    -0.219563     3.854133
 H     2.674925    -1.404811     2.932873
 H    -1.857667    -4.214769     3.003166
 H    -3.175874    -6.317300     3.027455
 H    -2.045280    -8.515678     3.275691
 H     0.438646    -8.639135     3.404623
 H     2.955009    -8.260822     3.249829
 H     5.272828    -7.441867     2.783391
 H     5.684991    -5.020752     2.417307
 H     3.835053    -3.381877     2.591766
