   62
FINAL HEAT OF FORMATION = -6534.832024
Br     6.060315     2.886969     5.795977
Br     0.438410    -0.611569     6.603664
 C     4.058892     0.846794     3.603067
 C     2.510167     0.121240     3.765856
 C     2.662964     0.537820     5.237290
 C     2.020972     0.451932     6.438302
 C     2.568432     1.162961     7.554822
 C     1.930707     1.173879     8.820974
 C     2.440733     1.903283     9.870995
 C     3.624829     2.653843     9.699582
 C     4.277831     2.659907     8.485499
 C     3.785340     1.926293     7.376191
 C     4.444164     1.919176     6.100143
 C     3.888051     1.206797     5.078891
 C     5.090485    -0.223127     3.322203
 C     5.043524    -0.934626     2.111412
 C     5.902545    -2.002790     1.870337
 C     6.832761    -2.388945     2.840069
 C     6.891000    -1.690752     4.045004
 C     6.024565    -0.619025     4.281635
 C     4.140542     2.069315     2.698752
 C     3.305397     3.171606     2.948686
 C     3.325100     4.292852     2.124070
 C     4.192850     4.346308     1.029770
 C     5.045814     3.270658     0.784229
 C     5.022429     2.145587     1.612769
 C     2.444372    -1.389852     3.535916
 C     3.065509    -2.260075     4.445527
 C     3.093069    -3.637147     4.235355
 C     2.482562    -4.190850     3.108056
 C     1.827897    -3.346536     2.212401
 C     1.802421    -1.966783     2.427459
 C     1.444757     0.832644     2.944398
 C     0.261250     1.324197     3.502537
 C    -0.715207     1.927659     2.702120
 C    -0.527114     2.048722     1.325911
 C     0.650035     1.558806     0.753398
 C     1.619464     0.961518     1.554248
 H     1.012876     0.598670     8.938365
 H     1.924629     1.903143    10.832693
 H     4.024713     3.234370    10.532482
 H     5.190390     3.239123     8.354147
 H     4.299319    -0.674971     1.358599
 H     5.832299    -2.548752     0.927423
 H     7.499482    -3.234197     2.657841
 H     7.606724    -1.983976     4.815687
 H     6.066591    -0.097290     5.236011
 H     2.608866     3.141463     3.785397
 H     2.652560     5.126693     2.334220
 H     4.208596     5.223503     0.379757
 H     5.743613     3.302820    -0.055353
 H     5.707070     1.324636     1.409275
 H     3.551062    -1.852120     5.329833
 H     3.598077    -4.281329     4.957759
 H     2.506850    -5.269158     2.936823
 H     1.324716    -3.759283     1.334946
 H     1.267637    -1.344080     1.714794
 H     0.085251     1.231282     4.571941
 H    -1.631433     2.301608     3.163868
 H    -1.288340     2.521801     0.701963
 H     0.820572     1.650045    -0.321309
 H     2.536451     0.602410     1.089520
