   28
FINAL HEAT OF FORMATION =  -442.882313
 B     0.378951     6.648921     5.270440
 H     0.858495     6.076751     6.201114
 B    -1.992295     7.596924     3.929451
 H    -3.173236     7.648256     3.773623
 B    -1.207503     6.163666     4.630596
 H    -1.837549     5.209992     4.970566
 B    -0.942874     8.116118     2.570860
 H    -1.366123     8.470832     1.514673
 B     0.285246     5.885445     3.671582
 H     0.641178     4.801577     3.326729
 B     0.560675     8.414736     4.998204
 H     1.174091     9.119790     5.740324
 B     1.410585     7.250930     3.952662
 H     2.578448     7.055035     3.836902
 B     0.623942     8.682352     3.235503
 H     1.239250     9.495949     2.622549
 B    -1.032089     7.751457     5.418687
 H    -1.565376     7.973840     6.462840
 B    -0.896677     8.982178     4.115244
 H    -1.327795    10.090208     4.214101
 C     0.487812     7.156461     2.543457
 C    -1.163460     6.477043     2.977045
 N     1.020212     6.830273     1.295305
 N    -1.715822     5.669047     1.966459
 H    -1.878702     4.717328     2.288965
 H    -2.583366     6.057276     1.601868
 H     0.503826     7.241507     0.522313
 H     1.123258     5.828606     1.155238
