   55
FINAL HEAT OF FORMATION = -1021.780330
 B     0.355027     0.742165    12.577527
 H    -0.810593     0.945221    12.490130
 B     1.172971     0.252425    14.051406
 H     0.517821     0.019922    15.017712
 B     2.661833     1.240849    14.224903
 H     3.000192     1.613789    15.302994
 B     2.830750     2.336000    12.847350
 H     3.122283     3.481609    12.938447
 B     2.907325     1.418909    11.350713
 H     3.385372     1.929358    10.386978
 B     1.394817     0.461618    11.183090
 H     0.893350     0.338186    10.111562
 B     1.319232    -0.707943    12.547759
 H     0.784951    -1.767328    12.425488
 B     3.744561     0.859743    12.839451
 H     4.931943     0.900800    12.946884
 B     2.886509    -0.306829    11.786961
 H     3.480254    -1.106520    11.130213
 B     2.746056    -0.426369    13.579533
 H     3.248196    -1.303941    14.212967
 N     0.446059     2.988741    13.923017
 N     0.726557     3.206769    11.560082
 C     1.255333     1.890109    13.518589
 C     1.404586     2.003628    11.917203
 C    -0.124007     3.599386    12.714516
 H    -0.148688     4.691667    12.819395
 H    -1.160874     3.247372    12.553435
 C     0.021482     3.196346    10.280717
 H    -0.829614     2.486009    10.292476
 H     0.731411     2.840335     9.518932
 C    -0.473118     4.579853     9.923617
 C     0.385748     5.685143    10.005901
 H     1.409590     5.536065    10.354440
 C    -0.068196     6.957859     9.659266
 H     0.607976     7.812630     9.727701
 C    -1.385163     7.140796     9.224029
 H    -1.739716     8.137411     8.953494
 C    -2.245482     6.044508     9.141499
 H    -3.276550     6.179597     8.808200
 C    -1.790764     4.771072     9.494801
 H    -2.467954     3.915006     9.438356
 C     0.994947     3.916116    14.914531
 H     1.781816     4.565870    14.487685
 H     1.470715     3.305310    15.695383
 C    -0.099628     4.763007    15.524477
 C     0.100310     6.129739    15.746953
 H     1.047206     6.589857    15.453415
 C    -0.900755     6.907880    16.335695
 H    -0.732183     7.973721    16.502436
 C    -2.116210     6.325051    16.699448
 H    -2.901719     6.932282    17.153861
 C    -2.325926     4.960977    16.472225
 H    -3.276327     4.500183    16.750333
 C    -1.324669     4.185138    15.888351
 H    -1.487148     3.122702    15.697872
