   72
FINAL HEAT OF FORMATION = -1219.628417
 N    10.479018     9.120455     2.219050
 N     8.568135     6.771414     1.400298
 C    12.395017    11.887995    -0.658381
 H    12.598319    11.775068    -1.726895
 C    11.352425    11.153331    -0.087885
 C     6.985232     6.149542    -0.356544
 C    11.086551    11.290528     1.289826
 C     9.972323     8.376349     3.266100
 C     9.982528    10.473273     1.916972
 H     9.619272    10.951060     2.836054
 H     9.122306    10.396548     1.235550
 C    13.183524    12.758769     0.100376
 B     7.687861     6.730426     3.990891
 C     8.794669     6.902327     2.751179
 B     8.287863     8.366609     3.509403
 C     6.140467     4.007953    -1.118572
 H     5.675638     3.044973    -0.889764
 C    11.885979    12.139281     2.079188
 C     7.328997     6.468843    -1.684756
 C    12.917378    12.863969     1.468804
 H    13.533555    13.524972     2.083468
 C     7.285306     7.112368     0.767184
 H     7.320357     8.146695     0.396709
 H     6.491599     7.071730     1.525196
 B     9.460192     8.924093     4.766188
 B    10.419388     6.711279     3.245664
 C     6.389379     4.899405    -0.072743
 B     8.063627     7.942589     5.230342
 C     7.063088     5.545570    -2.705026
 H     7.332990     5.802418    -3.732780
 C     6.468853     4.309199    -2.445693
 B     9.089906     5.644557     3.826428
 B    10.863037     7.845614     4.576694
 C    14.273676    13.568706    -0.553750
 H    13.854353    14.457479    -1.056752
 H    14.802858    12.982621    -1.321219
 H    15.012602    13.922072     0.180190
 C    10.529609    10.219297    -0.943815
 H    10.981908    10.088164    -1.936864
 H     9.506470    10.604426    -1.095221
 H    10.430027     9.228536    -0.475419
 B     8.618104     6.244494     5.432342
 C     7.983839     7.782246    -2.038575
 H     8.269723     7.801790    -3.099601
 H     8.890763     7.957267    -1.441982
 H     7.310890     8.637866    -1.861113
 B     9.693775     7.568410     5.892704
 C     6.015614     4.504198     1.334019
 H     5.570651     3.499840     1.351000
 H     5.284996     5.201781     1.774494
 H     6.888298     4.497762     2.004211
 B    10.348366     6.186708     4.946530
 C     6.195945     3.318138    -3.549519
 H     6.794846     2.401263    -3.417152
 H     6.436186     3.736637    -4.537638
 H     5.137221     3.011377    -3.558062
 C    11.655064    12.270775     3.564896
 H    12.416570    12.916327     4.023535
 H    11.690140    11.293714     4.072257
 H    10.667911    12.708690     3.787673
 H     7.621447     9.116508     2.872362
 H     8.997880     4.545594     3.372951
 H    11.202443     6.373316     2.413455
 H     9.998828     7.779980     7.027237
 H     6.578087     6.420945     3.694043
 H    11.986588     8.241614     4.639014
 H     8.137643     5.500670     6.232836
 H     7.185031     8.417590     5.883281
 H     9.558398    10.092721     4.974886
 H    11.129704     5.404623     5.396122
 H    11.476913     9.006541     2.077100
 H     9.091353     6.034213     0.942522
