   66
scf done: -1140.026625
 N     1.427042    -0.235294     0.832845
 C     2.695034    -0.729352     0.351661
 C     0.881054     0.998280     0.504176
 C     2.752528    -1.601989    -0.752124
 C     4.008735    -2.055201    -1.187658
 H     4.049018    -2.720757    -2.052703
 C     3.879769    -0.393249     1.054275
 C     5.101515    -0.885852     0.591891
 H     6.011728    -0.621637     1.134314
 C     5.193630    -1.704836    -0.542562
 C     1.527758    -2.104420    -1.474834
 H     0.611369    -1.868439    -0.930761
 H     1.585551    -3.194226    -1.604189
 H     1.451993    -1.664312    -2.480169
 B     0.636087     1.378825    -1.183350
 H     1.084814     0.633389    -1.988895
 B     0.840646     2.352534     1.496492
 H     1.376327     2.241673     2.551614
 C     6.534762    -2.198761    -1.025921
 H     7.060117    -2.757259    -0.236396
 H     7.184166    -1.357336    -1.312280
 H     6.432332    -2.857624    -1.897314
 C     3.848968     0.461121     2.297314
 H     3.581209     1.500818     2.069501
 H     4.831962     0.465090     2.782896
 H     3.115836     0.096212     3.031360
 B     1.704587     2.316599    -0.062937
 H     2.882368     2.210003    -0.173573
 B     0.703322     3.163968    -1.257634
 H     1.224424     3.732321    -2.165596
 B     0.769641     3.764119     0.428321
 H     1.334624     4.767178     0.733833
 H     1.169495    -0.552852     1.759298
 N    -1.427007    -0.235322    -0.832768
 C    -2.695030    -0.729345    -0.351612
 C    -0.881059     0.998297    -0.504160
 C    -2.752558    -1.602024     0.752146
 C    -4.008783    -2.055267     1.187591
 H    -4.049114    -2.720874     2.052595
 C    -3.879715    -0.393174    -1.054242
 C    -5.101488    -0.885789    -0.591927
 H    -6.011683    -0.621524    -1.134356
 C    -5.193649    -1.704852     0.542461
 C    -1.527821    -2.104443     1.474918
 H    -0.611406    -1.868562     0.930841
 H    -1.585671    -3.194230     1.604404
 H    -1.452044    -1.664215     2.480205
 B    -0.636096     1.378796     1.183347
 H    -1.084841     0.633356     1.988871
 B    -0.840660     2.352538    -1.496492
 H    -1.376392     2.241643    -2.551580
 C    -6.534809    -2.198803     1.025724
 H    -7.060109    -2.757273     0.236143
 H    -7.184236    -1.357396     1.312080
 H    -6.432428    -2.857703     1.897095
 C    -3.848833     0.461256    -2.297240
 H    -3.581123     1.500946    -2.069363
 H    -4.831785     0.465210    -2.782905
 H    -3.115624     0.096392    -3.031233
 B    -1.704598     2.316598     0.062951
 H    -2.882377     2.210000     0.173600
 B    -0.703335     3.163945     1.257644
 H    -1.224425     3.732277     2.165626
 B    -0.769656     3.764121    -0.428304
 H    -1.334657     4.767179    -0.733788
 H    -1.169397    -0.552949    -1.759181
