   74
scf done: -1243.905328
 C    -0.630217    -0.030751    -0.121760
 C    -0.973761    -1.545285    -0.408115
 C     1.047872     0.185801     0.180816
 C    -2.404172    -1.742554    -0.971071
 C     1.215158     1.315688     1.236859
 C    -1.716124     0.386165     1.006799
 C     1.843335     0.599291    -1.124141
 C    -1.760329     1.897585     1.350248
 C    -2.455001     0.576895    -1.878010
 C     2.771396    -1.722722    -1.570356
 C    -1.026910     0.873466    -1.354579
 C    -3.178221     0.124078     0.438007
 C    -1.587179    -0.502531     2.262497
 C     3.290710     1.069955    -0.779622
 C     3.374962    -0.581812     1.069021
 C    -0.966520     2.384775    -1.028324
 C    -3.424502    -1.352099     0.115246
 C     1.916494    -1.040704     0.718359
 C    -3.476132     0.984060    -0.800135
 C     4.097953    -0.116348    -0.215217
 C     2.657461     1.737398     1.534540
 C     1.957278    -0.551727    -2.149063
 C     4.191799    -1.243634    -1.247315
 C     2.109990    -2.216736    -0.272070
 C    -1.855320    -1.985923     1.931216
 C     3.411352     0.538147     2.108265
 C    -1.973514     2.751282     0.079258
 C     3.301717     2.222076     0.230096
 C    -2.615185    -0.902295    -2.231370
 C    -3.381498     2.474890    -0.464449
 C    -0.877101    -2.450666     0.845062
 C    -3.277883    -2.180610     1.394163
 H    -0.354234     0.666614    -2.190895
 H     2.807037    -2.544989    -2.301394
 H     2.632028     2.557472     2.268889
 H     2.939497     0.209917     3.047751
 H    -1.886584    -1.190489    -3.005662
 H     0.126019    -2.496645     1.259351
 H    -4.493867     0.750131    -1.153293
 H    -2.610142     1.188957    -2.781208
 H     0.968718    -0.900721    -2.468858
 H    -1.223093     2.944121    -1.941901
 H     4.699510    -0.883891    -2.156402
 H     4.796200    -2.075506    -0.852651
 H    -3.865273     0.420069     1.247584
 H    -2.619236     2.055604     2.021944
 H    -4.146183     2.743638     0.281001
 H     4.335639     2.559848     0.402839
 H     0.042985     2.708426    -0.765079
 H     1.361310     1.451981    -1.607598
 H     2.748252     3.088452    -0.165034
 H    -3.614988    -1.088048    -2.654416
 H    -0.295746    -1.916074    -1.179659
 H     2.451614    -0.169455    -3.056048
 H     1.485806    -1.404161     1.658053
 H     3.753462     1.406502    -1.721687
 H    -3.462882    -3.247745     1.194166
 H    -4.029379    -1.859840     2.132988
 H    -0.592361    -0.400101     2.715408
 H    -2.517252    -2.810283    -1.219604
 H     4.454353     0.797341     2.349614
 H     0.749063     0.998866     2.175603
 H    -1.709893    -2.590017     2.840013
 H    -3.579620     3.085290    -1.359635
 H     0.690288     2.208792     0.909405
 H     2.763936    -2.960873     0.209253
 H     1.187355    -2.746452    -0.501190
 H    -0.896320     2.234615     1.920213
 H    -1.869547     3.817185     0.334164
 H    -4.446030    -1.464670    -0.283744
 H     3.891969    -1.466264     1.474006
 H    -1.125418    -3.480457     0.543265
 H    -2.305812    -0.155528     3.022421
 H     5.111379     0.227450     0.048912
