   23
FINAL HEAT OF FORMATION =  -739.620348
 C     7.878897     5.697352     9.890989
 C     8.069614     6.981824    10.378503
 C     7.049287     7.924249    10.235572
 C     5.858006     7.550835     9.603819
 C     5.719003     6.255845     9.135461
 N     6.720491     5.355908     9.283595
 C     6.528816     3.984943     8.769347
 C     7.563105     2.841346     8.848070
 C     5.424655     2.993213     9.217877
 C     6.243622     3.601167     7.294175
 C     6.292746     2.287552     8.132019
 I     6.027777     0.309502     7.397336
 H     8.630942     4.916143     9.968847
 H     9.012264     7.230384    10.863657
 H     7.178817     8.939713    10.611774
 H     5.037901     8.255250     9.472048
 H     4.821245     5.898554     8.635795
 H     7.776391     2.425849     9.839976
 H     8.462698     2.935750     8.228562
 H     4.392467     3.229104     8.933646
 H     5.498652     2.601121    10.238332
 H     7.057365     3.758530     6.577522
 H     5.265040     3.876767     6.883977
