   54
scf done:  -982.866536
 B    -1.190988     1.996834    -0.000000
 B    -0.781119     2.971180     1.463335
 B     0.994588     3.084435     1.459183
 B     1.506551     2.163301    -0.000000
 B    -1.386972     3.767033    -0.000000
 B     0.018970     4.455502     0.881860
 B     1.495800     3.952109    -0.000000
 C     0.185225     1.696288     0.991430
 N     0.305128     0.462400     1.602173
 C    -0.753094    -0.082888     2.456505
 H    -1.669192    -0.171133     1.855498
 H    -0.983581     0.599495     3.290103
 C    -0.361448    -1.434128     3.013446
 C    -0.331153    -1.652239     4.396909
 H    -0.579842    -0.833806     5.074956
 C     0.011076    -2.905064     4.915671
 H     0.029598    -3.057715     5.995936
 C     0.331176    -3.955917     4.053648
 H     0.599070    -4.934028     4.455804
 C     0.307613    -3.747300     2.670345
 H     0.554719    -4.565075     1.991431
 C    -0.037056    -2.497111     2.155529
 H    -0.055858    -2.336231     1.078072
 H    -2.069070     1.196861    -0.000000
 H     2.505445     4.584151    -0.000000
 H    -1.427293     2.825801     2.451089
 H     2.458774     1.447584     0.000000
 H    -2.463824     4.276818    -0.000000
 H     1.647016     2.993453     2.451173
 H    -0.046589     5.457923     1.521357
 H     1.243187     0.248177     1.918148
 B    -0.781119     2.971180    -1.463335
 B     0.994588     3.084435    -1.459183
 B     0.018970     4.455502    -0.881860
 C     0.185225     1.696288    -0.991430
 N     0.305128     0.462400    -1.602173
 C    -0.753094    -0.082888    -2.456505
 H    -1.669192    -0.171133    -1.855498
 H    -0.983581     0.599495    -3.290103
 C    -0.361448    -1.434128    -3.013446
 C    -0.331153    -1.652239    -4.396909
 H    -0.579842    -0.833806    -5.074956
 C     0.011076    -2.905064    -4.915671
 H     0.029598    -3.057715    -5.995936
 C     0.331176    -3.955917    -4.053648
 H     0.599070    -4.934028    -4.455804
 C     0.307613    -3.747300    -2.670345
 H     0.554719    -4.565075    -1.991431
 C    -0.037056    -2.497111    -2.155529
 H    -0.055858    -2.336231    -1.078072
 H    -1.427293     2.825801    -2.451089
 H     1.647016     2.993453    -2.451173
 H    -0.046589     5.457923    -1.521357
 H     1.243187     0.248177    -1.918148
