   55
scf done: -1020.916837
 B    -2.265310     0.053914    -1.472782
 H    -1.502545     0.039196    -2.380640
 B    -3.051907     1.492333    -0.855756
 H    -2.895180     2.521422    -1.429853
 B    -2.955277     1.468817     0.934880
 H    -2.776242     2.482283     1.528837
 B    -2.146229     0.000763     1.484037
 H    -1.311302    -0.020469     2.324145
 B    -3.017650    -1.414275     0.924788
 H    -2.859511    -2.450882     1.485808
 B    -3.076900    -1.386507    -0.869879
 H    -2.967738    -2.402391    -1.477033
 B    -4.002408     0.069626    -1.374734
 H    -4.645181     0.077010    -2.377299
 B    -3.879237     0.042967     1.520699
 H    -4.442823     0.054258     2.569836
 B    -4.477586    -0.839119     0.086710
 H    -5.485220    -1.471612     0.121858
 B    -4.451691     0.961080     0.099720
 H    -5.438612     1.623849     0.156247
 N    -0.326324     1.190445    -0.102543
 N    -0.361641    -1.188032    -0.033857
 C    -1.696265     0.822564    -0.018909
 C    -1.726179    -0.786809    -0.010240
 C     0.465696    -0.011568    -0.391727
 H     1.396005     0.001169     0.189225
 H     0.736453    -0.058460    -1.463023
 C    -0.016589    -2.428477    -0.717749
 H    -0.061580    -2.306502    -1.817125
 H    -0.775036    -3.174965    -0.447140
 C     1.356696    -2.936271    -0.321448
 C     1.703496    -3.067094     1.032466
 H     0.985976    -2.767357     1.797343
 C     2.952394    -3.569749     1.399642
 H     3.208293    -3.666774     2.456146
 C     3.872793    -3.954444     0.417961
 H     4.849086    -4.347583     0.705419
 C     3.535608    -3.828826    -0.931239
 H     4.248243    -4.122583    -1.703599
 C     2.284601    -3.321350    -1.297044
 H     2.026940    -3.223747    -2.353339
 C     0.216391     2.134104     0.874136
 H     0.395543     1.651859     1.851693
 H    -0.546820     2.905931     1.034602
 C     1.495563     2.789038     0.390367
 C     2.605253     2.890682     1.238923
 H     2.557210     2.461549     2.241628
 C     3.771922     3.535057     0.814893
 H     4.628262     3.603892     1.487672
 C     3.841812     4.083492    -0.467394
 H     4.751952     4.583715    -0.801686
 C     2.738737     3.983920    -1.322973
 H     2.785742     4.410888    -2.326232
 C     1.574507     3.343597    -0.896711
 H     0.716198     3.264221    -1.564850
