   72
scf done: -1218.608094
 N     1.631325     0.549641     0.237128
 N    -1.629986     0.546909     0.238960
 C     4.348426    -3.109720     0.171737
 H     4.190572    -4.177024     0.341455
 C     3.267849    -2.325177    -0.244912
 C    -3.454124    -0.949525    -0.464299
 C     3.459512    -0.941921    -0.466640
 C     1.007454     1.774224     0.202166
 C     2.303512    -0.069709    -0.914471
 H     2.665213     0.721769    -1.581562
 H     1.581436    -0.658544    -1.495647
 C     5.621850    -2.565617     0.379676
 B    -1.466231     3.113228    -0.673177
 C    -1.008238     1.772078     0.203308
 B    -0.000874     2.159559    -1.140243
 C    -5.789347    -1.198801     0.150487
 H    -6.774444    -0.751927     0.300785
 C     4.736116    -0.373930    -0.259238
 C    -3.262776    -2.328172    -0.233468
 C     5.791796    -1.195963     0.158250
 H     6.775392    -0.749116     0.315834
 C    -2.296873    -0.078780    -0.911858
 H    -1.572553    -0.670421    -1.487491
 H    -2.655944     0.709517    -1.584049
 B     1.462602     3.116650    -0.674288
 B    -0.000222     2.144599     1.546325
 C    -4.734973    -0.380087    -0.266135
 B    -0.002943     3.943149    -1.223255
 C    -4.347291    -3.113340     0.182555
 H    -4.189294    -4.179152     0.359066
 C    -5.619194    -2.570191     0.380822
 B    -1.463390     3.104079     1.106027
 B     1.460795     3.106771     1.104764
 C     6.766883    -3.439267     0.830269
 H     6.955863    -4.248380     0.108303
 H     6.545095    -3.915791     1.797489
 H     7.694121    -2.863322     0.942461
 C     1.921170    -2.976550    -0.460501
 H     1.927097    -4.012822    -0.102147
 H     1.647339    -2.997057    -1.526760
 H     1.119536    -2.443656     0.067588
 B    -0.883934     4.536251     0.226157
 C    -1.915435    -2.982180    -0.436838
 H    -1.922844    -4.014498    -0.067301
 H    -1.115533    -2.444302     0.088771
 H    -1.637411    -3.014521    -1.501757
 B     0.877901     4.538117     0.225559
 C    -4.988882     1.089596    -0.507954
 H    -6.013563     1.358309    -0.225271
 H    -4.857176     1.352989    -1.568457
 H    -4.303170     1.727031     0.066838
 B    -0.001906     3.928360     1.665391
 C    -6.780084    -3.423283     0.830049
 H    -7.190044    -3.062945     1.785969
 H    -6.483538    -4.471416     0.963098
 H    -7.600221    -3.393657     0.096528
 C     4.992438     1.096991    -0.490524
 H     6.014427     1.364264    -0.196964
 H     4.301808     1.731738     0.081308
 H     4.870775     1.366204    -1.550804
 H    -0.000504     1.417937    -2.068839
 H    -2.454652     2.977417     1.753210
 H     0.001028     1.368002     2.449833
 H     1.515649     5.544195     0.228689
 H    -2.452065     3.019743    -1.331734
 H     2.452710     2.982039     1.751368
 H    -1.523780     5.541000     0.229596
 H    -0.004127     4.524242    -2.263798
 H     2.448314     3.025308    -1.333351
 H    -0.001974     4.490071     2.715897
 H     1.931473     0.230542     1.147759
 H    -1.922108     0.222536     1.150270
