   70
scf done: -1615.840955
 H    -6.024632    -0.867899    -1.658435
 C    -4.284288    -0.000187     0.855377
 C    -3.440302    -0.000159    -0.241318
 C    -4.063548    -0.000014    -1.480432
 C    -3.259929     0.000026    -2.581777
 C    -5.692062    -0.000513     0.326019
 C    -5.545959     0.000464    -1.222376
 H    -3.674246     0.000147    -3.573629
 H    -6.241538    -0.870095     0.665602
 H    -6.242730     0.867846     0.666746
 H    -6.023470     0.870155    -1.657087
 H    -0.407280    -4.515527    -0.992486
 C    -1.456611    -0.000087     1.120135
 C    -2.282886    -0.000057     2.214068
 C    -3.695763    -0.000122     2.086563
 C    -1.845960    -0.000024    -2.448016
 C    -1.258752    -0.000078    -1.218990
 C    -2.081036    -0.000149    -0.112389
 C     0.057204    -0.000020     0.925576
 C     0.678161     1.239970     1.570684
 C    -0.100614     2.161088     2.253354
 C     0.417155     3.317086     2.787610
 C     1.751770     3.608304     2.634349
 C     2.541985     2.715891     1.959480
 C     2.038519     1.527754     1.451070
 C     2.999890     0.661358     0.805183
 C     2.999928    -0.661212     0.805163
 C     2.038609    -1.527675     1.451049
 C     2.542146    -2.715800     1.959437
 C     1.751970    -3.608282     2.634242
 C     0.417321    -3.317158     2.787475
 C    -0.100504    -2.161177     2.253262
 C     0.678243    -1.239978     1.570649
 C     0.195953    -0.000007    -0.771897
 C     0.748113     1.337039    -1.267920
 C    -0.059337     2.427658    -0.958712
 C     0.254865     3.721405    -1.280320
 C     0.255118    -3.721396    -1.280337
 C    -0.059125    -2.427698    -0.958634
 C     0.748218    -1.337005    -1.267922
 H    -1.872481     0.000039     3.208067
 H    -4.282496    -0.000118     2.987233
 H    -1.153810     2.000614     2.343939
 H    -0.234951     3.998091     3.301997
 H     2.168534     4.515847     3.028733
 H     3.588053     2.922753     1.825469
 H     3.837759     1.159768     0.351426
 H     3.837821    -1.159561     0.351378
 H     3.588233    -2.922581     1.825444
 H     2.168764    -4.515818     3.028612
 H    -0.234744    -3.998249     3.301801
 H    -1.153711    -2.000754     2.343822
 H    -0.975462     2.257851    -0.429725
 H    -0.407635     4.515465    -0.992507
 H    -0.975177    -2.257958    -0.429503
 H     1.691250    -4.986177    -2.236874
 C     1.417947     3.983483    -1.967393
 C     2.219293     2.930705    -2.306072
 C     1.916249     1.608500    -1.977355
 C     2.901961     0.660567    -2.445210
 C     2.901970    -0.660356    -2.445278
 C     1.916291    -1.608359    -1.977477
 C     2.219369    -2.930538    -2.306324
 C     1.418126    -3.983366    -1.967608
 H    -1.246294     0.000033    -3.339652
 H     1.691082     4.986315    -2.236564
 H     3.125312     3.115869    -2.853479
 H     3.765149     1.124291    -2.889177
 H     3.765173    -1.124024    -2.889275
 H     3.125345    -3.115613    -2.853830
