   66
scf done: -2157.731779
Cl     2.847732     2.524806     0.572391
Cl     0.724272    -3.181851    -0.657236
 C     0.441798    -0.527275    -0.337817
 C    -0.992073    -0.220402     0.023089
 C    -0.485644     1.368902     0.057379
 C     0.903743     0.760236    -0.049918
 C     2.226461     1.014540     0.047234
 C     3.149009    -0.020865    -0.263331
 C     4.536878     0.197107    -0.259537
 C     5.406894    -0.798493    -0.558395
 C     4.934331    -2.074132    -0.871428
 C     3.601929    -2.321875    -0.877034
 C     2.672513    -1.311920    -0.580225
 C     1.276860    -1.563279    -0.554336
 C    -1.265403    -0.962494     1.352080
 C    -0.221515    -1.394378     2.160421
 C    -0.440051    -2.110184     3.313939
 C    -1.719487    -2.431470     3.704886
 C    -2.768239    -2.030810     2.913829
 C    -2.541526    -1.320730     1.754385
 C    -2.088000    -0.594109    -0.947873
 C    -1.891417    -1.543844    -1.931249
 C    -2.903059    -1.904860    -2.792586
 C    -4.145582    -1.322323    -2.692786
 C    -4.361300    -0.377017    -1.716151
 C    -3.345581    -0.023865    -0.855887
 C    -0.829476     2.198025     1.351253
 C    -2.317440     2.148961     1.663232
 C    -0.447103     3.677116     1.316064
 C    -0.107427     1.675454     2.589739
 C    -0.708265     2.150045    -1.323403
 C    -0.633191     1.278710    -2.579556
 C    -2.026492     2.902036    -1.450870
 C     0.426510     3.151110    -1.549646
 H     4.906938     1.173707    -0.021221
 H     6.462506    -0.603414    -0.554626
 H     5.625991    -2.860050    -1.108560
 H     3.240230    -3.301820    -1.115893
 H     0.791732    -1.154221     1.907535
 H     0.401473    -2.417710     3.905962
 H    -1.893220    -2.993756     4.602983
 H    -3.777185    -2.281111     3.183800
 H    -3.390153    -1.069258     1.153174
 H    -0.927845    -1.990332    -2.056653
 H    -2.711011    -2.640807    -3.550827
 H    -4.934245    -1.599423    -3.366636
 H    -5.322928     0.091869    -1.619714
 H    -3.541128     0.713343    -0.102298
 H    -2.659979     1.139130     1.831503
 H    -2.924482     2.605141     0.894928
 H    -2.498149     2.696921     2.581039
 H    -0.896747     4.241698     0.516886
 H    -0.793028     4.119713     2.242692
 H     0.622776     3.819940     1.282389
 H    -0.225478     2.399884     3.387029
 H     0.954996     1.554382     2.424352
 H    -0.506770     0.744589     2.950597
 H     0.161526     0.545382    -2.544838
 H    -1.557608     0.775692    -2.805346
 H    -0.418996     1.933686    -3.416109
 H    -2.879686     2.246422    -1.383093
 H    -2.056548     3.349798    -2.437851
 H    -2.150553     3.703303    -0.740241
 H     0.155574     3.782883    -2.387461
 H     0.646125     3.795890    -0.720071
 H     1.339877     2.640788    -1.824069
