   66
scf done: -2157.748121
Cl    -1.981684     3.014914    -0.762607
Cl    -1.906167    -3.020067     0.868068
 C    -0.710648    -0.679953     0.185417
 C     0.799270    -0.682268     0.384853
 C     0.767025     0.718888    -0.448815
 C    -0.733651     0.665731    -0.225755
 C    -1.892080     1.345522    -0.360897
 C    -3.118193     0.651541    -0.166682
 C    -4.360530     1.288375    -0.318088
 C    -5.524614     0.611338    -0.160994
 C    -5.505353    -0.745543     0.158789
 C    -4.322728    -1.389211     0.318028
 C    -3.098241    -0.718792     0.164304
 C    -1.852831    -1.377536     0.362108
 C     1.615649    -1.817063    -0.187618
 C     1.019055    -2.942064    -0.723341
 C     1.761692    -4.004803    -1.191661
 C     3.134470    -3.970701    -1.139337
 C     3.751232    -2.852302    -0.624753
 C     3.001845    -1.795892    -0.160436
 C     1.040934    -0.593215     1.964906
 C    -0.043792     0.199844     2.681099
 C     0.998751    -2.008971     2.524061
 C     2.358998     0.000134     2.447295
 C     1.560052     1.861114     0.133940
 C     0.951681     2.911792     0.792432
 C     1.683711     3.946321     1.336161
 C     3.054045     3.957575     1.232633
 C     3.681356     2.914038     0.588309
 C     2.944505     1.883736     0.053821
 C     0.976184     0.638962    -2.026750
 C     0.096617    -0.407268    -2.697291
 C     0.575106     1.977069    -2.629171
 C     2.399518     0.391622    -2.509828
 H    -4.382452     2.329394    -0.567773
 H    -6.460592     1.122136    -0.284894
 H    -6.426467    -1.283080     0.280933
 H    -4.316699    -2.430375     0.567815
 H    -0.047539    -2.996465    -0.789706
 H     1.256384    -4.860262    -1.599487
 H     3.716577    -4.797565    -1.500236
 H     4.823197    -2.794991    -0.587740
 H     3.517777    -0.934040     0.208511
 H    -1.019240    -0.260004     2.605776
 H     0.210986     0.248130     3.733284
 H    -0.116337     1.216597     2.324215
 H     1.867029    -2.584285     2.232525
 H     0.986103    -1.954212     3.606583
 H     0.119879    -2.552405     2.216087
 H     2.410887     1.070467     2.334842
 H     2.431627    -0.213684     3.507909
 H     3.229905    -0.442968     1.991139
 H    -0.113081     2.930345     0.897066
 H     1.172460     4.743645     1.842465
 H     3.627060     4.762267     1.653414
 H     4.752516     2.892625     0.511648
 H     3.467476     1.068943    -0.401157
 H     0.380342    -1.416284    -2.442353
 H    -0.953795    -0.275060    -2.477532
 H     0.212705    -0.303177    -3.769787
 H    -0.488896     2.144778    -2.579748
 H     1.076915     2.810325    -2.154885
 H     0.850467     1.979604    -3.677576
 H     2.355956     0.224823    -3.579745
 H     3.034250     1.252793    -2.360316
 H     2.863880    -0.478539    -2.074528
