   54
scf done: -1306.416250
 C     0.000058     0.634264     0.824035
 C    -0.000121     0.634323    -0.823348
 C     0.000374    -1.880081     0.664051
 C     0.000154    -1.880187    -0.665210
 C    -1.212050    -0.023789     1.428131
 C    -2.268445     0.629918     2.009326
 H    -2.283810     1.703457     2.046252
 C    -3.316898    -0.100200     2.539108
 H    -4.141649     0.411683     2.998558
 C    -3.310996    -1.472907     2.477855
 H    -4.130252    -2.031817     2.889819
 C    -2.255310    -2.139608     1.883358
 H    -2.250201    -3.211648     1.822346
 C    -1.214489    -1.416479     1.365356
 C     1.212493    -0.023511     1.427844
 C     2.268683     0.630467     2.009094
 H     2.283788     1.704016     2.045987
 C     3.317278    -0.099381     2.538982
 H     4.141808     0.412712     2.998589
 C     3.311794    -1.472084     2.477629
 H     4.131166    -2.030780     2.889651
 C     2.256365    -2.139054     1.882972
 H     2.251588    -3.211092     1.821863
 C     1.215341    -1.416204     1.365003
 C    -1.212470    -0.023352    -1.427396
 C    -2.269025     0.630866    -2.007800
 H    -2.284365     1.704432    -2.043858
 C    -3.317467    -0.098786    -2.538219
 H    -4.142347     0.413474    -2.997018
 C    -3.311511    -1.471553    -2.478315
 H    -4.130685    -2.030069    -2.890966
 C    -2.255871    -2.138771    -1.884357
 H    -2.250791    -3.210863    -1.824230
 C    -1.215019    -1.416102    -1.365789
 C     1.212180    -0.023117    -1.427694
 C     2.268454     0.631397    -2.008290
 H     2.283460     1.704973    -2.044360
 C     3.317049    -0.097958    -2.538785
 H     4.141736     0.414507    -2.997683
 C     3.311489    -1.470728    -2.478783
 H     4.130829    -2.029041    -2.891399
 C     2.256013    -2.138231    -1.884852
 H     2.251187    -3.210329    -1.824843
 C     1.215029    -1.415867    -1.366126
 C    -0.000153     2.125942     0.685835
 C    -0.000490     3.285536     1.419702
 H    -0.000506     3.297657     2.493892
 C    -0.000738     4.462938     0.692363
 H    -0.000935     5.403802     1.210705
 C    -0.000769     4.462977    -0.691695
 H    -0.000997     5.403844    -1.210031
 C    -0.000487     3.285567    -1.418986
 H    -0.000547     3.297604    -2.493171
 C    -0.000191     2.126002    -0.685017
