   28
scf done:  -442.484230
 B     0.375150     6.673819     5.283226
 H     0.839500     6.118303     6.213204
 B    -1.962552     7.580150     3.920222
 H    -3.129901     7.583342     3.760428
 B    -1.174258     6.175045     4.612314
 H    -1.812432     5.235659     4.927304
 B    -0.955323     8.114007     2.588583
 H    -1.359174     8.432670     1.529710
 B     0.317058     5.881995     3.720744
 H     0.655770     4.811309     3.373109
 B     0.551455     8.409424     4.974188
 H     1.154689     9.123923     5.691850
 B     1.387469     7.245454     3.963103
 H     2.539340     7.071050     3.814119
 B     0.602588     8.631876     3.223306
 H     1.223706     9.408201     2.593232
 B    -1.027594     7.747817     5.396494
 H    -1.565738     7.966958     6.422228
 B    -0.896643     8.961333     4.109236
 H    -1.320093    10.058035     4.194659
 C     0.426583     7.104593     2.581692
 C    -1.083032     6.493433     2.972236
 N     0.957637     6.749288     1.346034
 N    -1.622271     5.658030     1.992756
 H    -1.850109     4.756753     2.360866
 H    -2.426928     6.061119     1.557330
 H     0.810214     7.465459     0.664424
 H     0.547990     5.893456     1.020703
