   72
scf done: -1218.427636
 N     1.499757     0.473481     0.261915
 N    -1.481090     0.469117     0.186785
 C     4.157102    -3.008791     0.399051
 H     3.968933    -4.016888     0.724338
 C     3.098508    -2.235489    -0.029055
 C    -3.350510    -0.890687    -0.521909
 C     3.328868    -0.931072    -0.447167
 C     0.881453     1.703662     0.207930
 C     2.180026    -0.079036    -0.890015
 H     2.534208     0.712149    -1.537663
 H     1.479077    -0.668803    -1.467843
 C     5.445675    -2.519626     0.424090
 B    -1.404823     3.047384    -0.660748
 C    -0.868823     1.703342     0.185661
 B     0.032165     2.146331    -1.171460
 C    -5.595841    -1.164231     0.252085
 H    -6.542538    -0.729417     0.520709
 C     4.618293    -0.414335    -0.410684
 C    -3.170405    -2.264571    -0.446174
 C     5.653959    -1.218022     0.021158
 H     6.650120    -0.812864     0.047774
 C    -2.230273    -0.000007    -0.961098
 H    -1.567019    -0.531457    -1.630133
 H    -2.630103     0.837514    -1.517711
 B     1.450953     3.047361    -0.622359
 B    -0.018046     2.090071     1.586939
 C    -4.576505    -0.336511    -0.168592
 B     0.032097     3.910183    -1.178662
 C    -4.213865    -3.062861    -0.022291
 H    -4.066791    -4.127155     0.031874
 C    -5.433965    -2.531623     0.333502
 B    -1.432945     3.010313     1.085203
 B     1.422000     2.999213     1.123886
 C     6.583797    -3.379118     0.857624
 H     7.001665    -3.917981     0.014566
 H     6.268598    -4.112145     1.588335
 H     7.379383    -2.789915     1.293908
 C     1.720177    -2.805349    -0.032684
 H     1.689353    -3.744503     0.502247
 H     1.374805    -2.994046    -1.043606
 H     1.015873    -2.127015     0.431151
 B    -0.864940     4.448841     0.253763
 C    -1.872870    -2.895493    -0.825695
 H    -1.845676    -3.931893    -0.518554
 H    -1.037821    -2.387807    -0.363920
 H    -1.719211    -2.869441    -1.899190
 B     0.887797     4.445663     0.280229
 C    -4.817316     1.134079    -0.255625
 H    -5.773222     1.391099     0.178899
 H    -4.826009     1.472686    -1.285781
 H    -4.055937     1.704564     0.260917
 B    -0.011680     3.843504     1.685501
 C    -6.541345    -3.403577     0.818850
 H    -6.567687    -3.425973     1.902583
 H    -6.422027    -4.421733     0.473667
 H    -7.503607    -3.044011     0.478483
 C     4.910238     0.991623    -0.819939
 H     5.948070     1.232867    -0.637519
 H     4.305750     1.704725    -0.272856
 H     4.719792     1.150772    -1.875204
 H     0.039468     1.409190    -2.086203
 H    -2.437915     2.831877     1.674149
 H    -0.028708     1.288478     2.447559
 H     1.531982     5.432883     0.311791
 H    -2.387630     2.937247    -1.297891
 H     2.409191     2.812381     1.740279
 H    -1.506579     5.438205     0.260784
 H     0.044306     4.504371    -2.196892
 H     2.452769     2.922737    -1.227145
 H    -0.023293     4.384105     2.733253
 H     2.002422     0.342953     1.113590
 H    -1.905821     0.245891     1.060739
