   55
scf done: -1020.775049
 B    -2.218253    -0.034326    -1.434876
 H    -1.441925    -0.106677    -2.312276
 B    -3.004744     1.432620    -0.941601
 H    -2.823275     2.407092    -1.574532
 B    -2.941133     1.526566     0.823340
 H    -2.756235     2.563845     1.346427
 B    -2.140851     0.109532     1.455279
 H    -1.318058     0.129478     2.289750
 B    -3.012046    -1.321826     0.996374
 H    -2.852862    -2.306538     1.620801
 B    -3.050806    -1.412002    -0.771516
 H    -2.926794    -2.454572    -1.302950
 B    -3.943436    -0.002296    -1.381305
 H    -4.561693    -0.055438    -2.383430
 B    -3.861848     0.158807     1.483183
 H    -4.429195     0.239147     2.513242
 B    -4.444575    -0.799805     0.115701
 H    -5.446204    -1.418280     0.177819
 B    -4.409336     0.973674     0.011558
 H    -5.383829     1.636982     0.009423
 N    -0.336063     1.169062    -0.155553
 N    -0.382656    -1.164928     0.081073
 C    -1.692146     0.814554    -0.055166
 C    -1.730565    -0.760886     0.051394
 C     0.424172    -0.040109    -0.373925
 H     1.354570     0.003242     0.173197
 H     0.659424    -0.155477    -1.429631
 C    -0.073241    -2.408630    -0.565708
 H    -0.196539    -2.335383    -1.646928
 H    -0.780720    -3.148553    -0.212394
 C     1.318718    -2.851434    -0.242944
 C     1.770695    -2.831141     1.063566
 H     1.119400    -2.465557     1.836100
 C     3.039276    -3.266340     1.368042
 H     3.380562    -3.246461     2.386143
 C     3.871573    -3.729564     0.370348
 H     4.861984    -4.068931     0.608863
 C     3.428501    -3.751073    -0.931911
 H     4.072110    -4.105668    -1.714923
 C     2.158128    -3.309648    -1.235899
 H     1.818214    -3.322230    -2.255878
 C     0.194011     2.090986     0.814290
 H     0.332435     1.625031     1.787554
 H    -0.534581     2.880906     0.940251
 C     1.487246     2.681510     0.348096
 C     2.535938     2.844976     1.228799
 H     2.432094     2.514015     2.246638
 C     3.715127     3.427312     0.815617
 H     4.523758     3.547862     1.511840
 C     3.857086     3.844546    -0.487852
 H     4.776276     4.294056    -0.813472
 C     2.814941     3.677922    -1.375580
 H     2.920849     3.999857    -2.394674
 C     1.637463     3.100447    -0.960580
 H     0.824858     2.964029    -1.649811
