   50
scf done:  -980.262960
 B     5.735732     3.469286     3.613994
 B     4.216321     4.349623     3.636816
 B     3.612815     4.349595     5.284095
 B     5.740201     5.222335     3.601838
 B     4.418114     5.774180     4.644972
 C     4.473796     3.037106     4.665369
 C     2.757818     1.668054     4.036909
 H     2.147751     2.535119     3.813727
 N     3.932496     1.771518     4.466972
 C     2.137521     0.372039     3.809540
 C     0.841515     0.319935     3.334902
 H     0.308444     1.233064     3.139818
 C     0.232413    -0.894604     3.111655
 H    -0.774919    -0.931172     2.742731
 C     0.920873    -2.059555     3.363612
 H     0.448713    -3.008420     3.190572
 C     2.217501    -2.012662     3.838475
 H     2.749728    -2.924499     4.033248
 C     2.825502    -0.803031     4.061318
 H     3.831525    -0.740537     4.429754
 H     2.467890     4.175905     5.498154
 H     6.033497     2.678765     2.801497
 H     3.480624     4.175774     2.733844
 H     6.094402     5.796798     2.635374
 H     3.813849     6.762128     4.423641
 B     4.757778     3.469290     6.283191
 B     6.277190     4.349628     6.260366
 B     6.880695     4.349595     4.613087
 B     4.753309     5.222339     6.295342
 B     6.075396     5.774181     5.252206
 C     6.019714     3.037107     5.231817
 C     7.735693     1.668058     5.860281
 H     8.345760     2.535124     6.083461
 N     6.561015     1.771520     5.430217
 C     8.355991     0.372044     6.087652
 C     9.651998     0.319942     6.562290
 H    10.185067     1.233072     6.757372
 C    10.261101    -0.894596     6.785539
 H    11.268433    -0.931162     7.154461
 C     9.572642    -2.059548     6.533583
 H    10.044803    -3.008413     6.706625
 C     8.276014    -2.012657     6.058721
 H     7.743787    -2.924495     5.863949
 C     7.668011    -0.803028     5.835876
 H     6.661988    -0.740535     5.467441
 H     8.025620     4.175903     4.399028
 H     4.460014     2.678771     7.095690
 H     7.012886     4.175781     7.163339
 H     4.399108     5.796805     7.261804
 H     6.679661     6.762130     5.473534
