   28
scf done:  -442.984436
 B     0.374435     6.648847     5.258400
 H     0.854821     6.081161     6.174951
 B    -1.989642     7.598887     3.935558
 H    -3.159305     7.664112     3.793440
 B    -1.210979     6.170392     4.638266
 H    -1.833295     5.231497     4.990063
 B    -0.941324     8.106769     2.574226
 H    -1.368176     8.466536     1.534590
 B     0.266710     5.890652     3.664368
 H     0.621698     4.815966     3.330422
 B     0.557905     8.407980     4.992153
 H     1.171553     9.102238     5.723417
 B     1.398677     7.248789     3.943893
 H     2.554452     7.049960     3.835466
 B     0.618262     8.680444     3.239505
 H     1.224763     9.489334     2.635384
 B    -1.025064     7.753347     5.415439
 H    -1.549295     7.976241     6.449403
 B    -0.893511     8.974969     4.114059
 H    -1.320005    10.071138     4.212143
 C     0.492740     7.163827     2.535390
 C    -1.192157     6.468085     2.987905
 N     1.019577     6.840571     1.294394
 N    -1.765675     5.668065     1.997079
 H    -1.878421     4.702627     2.264264
 H    -2.611969     6.047977     1.602590
 H     0.525833     7.220765     0.503580
 H     1.260494     5.871324     1.166951
