   68
FINAL HEAT OF FORMATION = -1616.010490
 C     9.211584    11.595753    15.176886
 C     8.138811    12.459118    15.033985
 C     6.933243    12.267726    15.781759
 C     6.831869    11.245737    16.715563
 C     7.972188    10.430794    16.894153
 C     7.649086     9.224969    17.549395
 C     8.581033     8.195423    17.476537
 C     9.775144     8.354867    16.712983
 C    10.020257     9.523303    16.002530
 C     9.092658    10.559657    16.112327
 C     5.741834    10.527383    17.399882
 C     6.221985     9.343086    17.890931
 C    10.567374    11.497426    14.498163
 C    11.484005    12.422401    15.335112
 C    11.039281    12.790739    16.620684
 C    11.819210    13.486528    17.532537
 C    13.119668    13.842196    17.195693
 C    13.577716    13.525502    15.930079
 C    12.783811    12.854462    14.976441
 C    13.391466    12.735438    13.668056
 C    12.847669    12.432218    12.479689
 C    11.497570    12.048380    12.109963
 C    11.277121    11.986671    10.718056
 C    10.081459    11.560693    10.166908
 C     9.051154    11.188855    11.022819
 C     9.241982    11.261477    12.396417
 C    10.449181    11.679148    12.986035
 C    10.974534     9.805252    14.842954
 C    12.418499     9.737180    15.337232
 C    12.603586     9.926461    16.715625
 C    13.848976    10.122676    17.294564
 C    14.984027    10.120275    16.491297
 C    14.834228     9.906193    15.132116
 C    13.575842     9.710490    14.527378
 C    13.607902     9.549364    13.086648
 C    12.655066     9.146244    12.232845
 C    11.291842     8.717315    12.472107
 C    10.710710     8.035855    11.382821
 C     9.432268     7.512516    11.423333
 C     8.688896     7.679213    12.586356
 C     9.230068     8.374841    13.661070
 C    10.531810     8.918542    13.655053
 H     8.166547    13.251341    14.289102
 H     6.071878    12.890982    15.541354
 H     8.373063     7.218596    17.913528
 H    10.439241     7.499888    16.601221
 H     4.707605    10.855893    17.457047
 H    10.045011    12.523286    16.947673
 H    11.400496    13.734710    18.505763
 H    13.757385    14.373222    17.899112
 H    14.580929    13.822750    15.632559
 H    14.447167    13.002461    13.646841
 H    13.525105    12.488417    11.628275
 H    12.095354    12.270873    10.058825
 H     9.960490    11.506390     9.086457
 H     8.106843    10.816485    10.631135
 H     8.427798    10.930960    13.028409
 H    11.731660     9.972562    17.356421
 H    13.918401    10.307491    18.364098
 H    15.970236    10.294804    16.916445
 H    15.712723     9.905235    14.489430
 H    14.577962     9.766992    12.641526
 H    12.954587     9.082405    11.187337
 H    11.308612     7.917770    10.481136
 H     9.024578     6.984688    10.563184
 H     7.676578     7.286597    12.660312
 H     8.586638     8.509906    14.520531
 H     5.632054     8.586791    18.402208
