   66
FINAL HEAT OF FORMATION = -2159.033273
Cl    14.245719     3.555359     8.581631
Cl    20.273525     5.521483     8.805588
 C    18.315903     3.631464     8.431747
 C    18.846161     2.198834     8.166368
 C    17.264021     1.698975     8.428754
 C    16.970988     3.204252     8.421136
 C    15.925492     4.078143     8.505159
 C    16.194265     5.476754     8.602948
 C    15.154858     6.438121     8.659426
 C    15.431621     7.777133     8.785795
 C    16.768596     8.212450     8.866235
 C    17.801160     7.304458     8.815658
 C    17.559583     5.915011     8.678434
 C    18.620838     4.950033     8.608721
 C    19.869082     1.675481     9.157771
 C    20.238196     2.440575    10.268402
 C    21.133813     1.960567    11.221717
 C    21.693346     0.693785    11.083594
 C    21.327903    -0.089379     9.990302
 C    20.423507     0.392047     9.050159
 C    19.364387     2.157661     6.632354
 C    18.306622     2.644795     5.614543
 C    20.562117     3.119940     6.544618
 C    19.882574     0.804464     6.100386
 C    16.660998     0.817064     7.344081
 C    15.585316     1.225187     6.548891
 C    14.993510     0.364378     5.626944
 C    15.465424    -0.936018     5.469016
 C    16.539094    -1.360043     6.247848
 C    17.120395    -0.495013     7.170558
 C    16.811784     1.048028     9.865679
 C    16.749268     2.114276    10.972861
 C    15.390059     0.446569     9.731365
 C    17.698719    -0.093779    10.401045
 H    14.126832     6.094702     8.602451
 H    14.616418     8.496715     8.824935
 H    16.987705     9.273002     8.967738
 H    18.827605     7.648975     8.875732
 H    19.808471     3.425137    10.406146
 H    21.392031     2.585321    12.074577
 H    22.397603     0.316221    11.822473
 H    21.734309    -1.092769     9.875470
 H    20.117000    -0.269609     8.251247
 H    17.698346     3.476786     5.981954
 H    18.831281     2.993819     4.715720
 H    17.633398     1.844280     5.305333
 H    21.291174     2.938178     7.342300
 H    21.069250     2.975094     5.582109
 H    20.247810     4.164377     6.590722
 H    19.175136    -0.016109     6.221945
 H    20.048193     0.921206     5.021143
 H    20.845534     0.526823     6.537388
 H    15.198881     2.232740     6.634310
 H    14.157225     0.718147     5.026441
 H    15.004250    -1.610171     4.749416
 H    16.928851    -2.371116     6.140835
 H    17.946930    -0.860506     7.767914
 H    17.685197     2.671966    11.063723
 H    15.933106     2.825713    10.815023
 H    16.567582     1.616126    11.934009
 H    14.681556     1.124089     9.252652
 H    15.391250    -0.490847     9.166107
 H    15.015510     0.228054    10.740333
 H    17.141459    -0.596672    11.203051
 H    17.927479    -0.857503     9.654771
 H    18.634683     0.261178    10.831797
