   66
FINAL HEAT OF FORMATION = -2159.017870
Cl     9.398156     8.877713     3.555506
Cl     4.445739    10.696381     0.098513
 C     7.107877    10.715168     0.776758
 C     7.708652    11.983467     0.220953
 C     9.157140    11.319776     0.859859
 C     8.215365    10.341490     1.554963
 C     8.119981     9.281627     2.417072
 C     6.938875     8.469332     2.412000
 C     6.831069     7.268485     3.161892
 C     5.706990     6.477993     3.096447
 C     4.614936     6.855492     2.289831
 C     4.668807     8.021374     1.565010
 C     5.819489     8.851229     1.590898
 C     5.910317    10.052762     0.827358
 C     6.972897    13.166293     0.928434
 C     6.136960    12.934051     2.034686
 C     5.385859    13.950309     2.614158
 C     5.440385    15.245197     2.105832
 C     6.252249    15.496557     1.004420
 C     6.993871    14.471302     0.420808
 C     7.659912    12.254077    -1.278016
 C     6.700248    11.675632    -2.115708
 C     6.658311    11.964810    -3.477252
 C     7.576134    12.846216    -4.043307
 C     8.534165    13.436262    -3.223727
 C     8.568489    13.143957    -1.862234
 C    10.011708    12.257592     1.798784
 C    10.352030    13.590734     1.111447
 C    11.337372    11.642177     2.296664
 C     9.216320    12.584721     3.082247
 C     9.960852    10.398715    -0.236390
 C     9.067594     9.708894    -1.305986
 C    11.042663    11.164767    -1.019556
 C    10.638020     9.195618     0.469137
 H     7.667651     6.963339     3.781558
 H     5.664710     5.551950     3.666327
 H     3.730993     6.222917     2.235076
 H     3.830388     8.313704     0.940101
 H     6.060654    11.941385     2.463609
 H     4.745952    13.717202     3.463225
 H     4.845890    16.041030     2.550398
 H     6.297914    16.494729     0.572903
 H     7.565708    14.702892    -0.469456
 H     5.989308    10.962457    -1.722766
 H     5.904319    11.486406    -4.100121
 H     7.546677    13.068687    -5.108467
 H     9.264893    14.126304    -3.642233
 H     9.327386    13.614415    -1.249635
 H     9.451646    14.139443     0.827810
 H    10.980923    13.458857     0.226764
 H    10.906457    14.225848     1.814778
 H    12.042789    11.407751     1.497262
 H    11.823626    12.376550     2.952052
 H    11.170043    10.740869     2.890965
 H     9.861620    13.146156     3.769793
 H     8.892580    11.676873     3.602134
 H     8.337717    13.196529     2.886379
 H     8.147754     9.279810    -0.895525
 H     8.804857    10.362399    -2.135635
 H     9.645913     8.877089    -1.727803
 H    10.626030    11.991418    -1.596206
 H    11.502282    10.473735    -1.738746
 H    11.845664    11.547997    -0.385924
 H    11.323806     8.724519    -0.246427
 H    11.213757     9.445944     1.356305
 H     9.899259     8.436728     0.746602
