   62
FINAL HEAT OF FORMATION = -6534.415220
Br     6.053476     2.896389     5.794249
Br     0.438706    -0.622020     6.587347
 C     4.059928     0.848801     3.609043
 C     2.513058     0.124715     3.768780
 C     2.665338     0.538494     5.236798
 C     2.023664     0.447846     6.431843
 C     2.566187     1.155319     7.549340
 C     1.928456     1.161683     8.812860
 C     2.434455     1.890106     9.861614
 C     3.613257     2.644174     9.692739
 C     4.266858     2.655430     8.482296
 C     3.779404     1.923104     7.372887
 C     4.437400     1.919321     6.099357
 C     3.886146     1.207866     5.081274
 C     5.090423    -0.219767     3.329323
 C     5.021497    -0.950886     2.134674
 C     5.873083    -2.021763     1.898768
 C     6.817840    -2.389631     2.857285
 C     6.899322    -1.670141     4.044795
 C     6.039667    -0.595662     4.277129
 C     4.143130     2.067659     2.705316
 C     3.304454     3.165163     2.948370
 C     3.318006     4.277068     2.116247
 C     4.182789     4.325001     1.022959
 C     5.041078     3.255174     0.786286
 C     5.024372     2.139175     1.622308
 C     2.442630    -1.383105     3.538561
 C     3.103350    -2.250644     4.418299
 C     3.137448    -3.622499     4.197240
 C     2.491826    -4.173167     3.091588
 C     1.792984    -3.332722     2.230933
 C     1.761980    -1.957360     2.455651
 C     1.453404     0.838940     2.946769
 C     0.270134     1.326622     3.500085
 C    -0.699807     1.931686     2.697764
 C    -0.503680     2.057570     1.326026
 C     0.673806     1.570555     0.758825
 C     1.636447     0.971668     1.560896
 H     1.015351     0.584659     8.929257
 H     1.919472     1.886705    10.819970
 H     4.008245     3.223192    10.524436
 H     5.174329     3.237454     8.354447
 H     4.265790    -0.707245     1.392769
 H     5.784023    -2.585337     0.972006
 H     7.477061    -3.237517     2.680561
 H     7.626281    -1.949473     4.805069
 H     6.098043    -0.059250     5.218770
 H     2.610858     3.138372     3.783493
 H     2.642891     5.106211     2.318095
 H     4.192938     5.193864     0.367408
 H     5.736828     3.285463    -0.050472
 H     5.711252     1.322083     1.427062
 H     3.614770    -1.845320     5.284960
 H     3.675467    -4.264454     4.891839
 H     2.521939    -5.246434     2.911552
 H     1.259876    -3.744528     1.375355
 H     1.193528    -1.337148     1.772073
 H     0.088388     1.229353     4.565012
 H    -1.616058     2.302637     3.153480
 H    -1.258987     2.531780     0.701699
 H     0.849630     1.666235    -0.311101
 H     2.551969     0.613635     1.099938
