   62
FINAL HEAT OF FORMATION = -1981.798874
 I     3.105945     1.853677     6.599483
 I     6.938250     2.695902     0.684359
 C     2.965676     0.670766     3.108492
 C     3.749881     1.060299     1.636847
 C     4.733128     1.811154     2.551626
 C     5.888946     2.524500     2.525718
 C     6.344593     3.113756     3.752657
 C     7.518056     3.901591     3.813720
 C     7.915821     4.509385     4.979745
 C     7.151137     4.351279     6.152137
 C     6.008186     3.586710     6.136691
 C     5.560615     2.942526     4.958817
 C     4.374238     2.135909     4.923405
 C     4.029475     1.556841     3.744380
 C     3.094153    -0.806202     3.394518
 C     3.850100    -1.292743     4.458985
 C     4.015409    -2.664868     4.655135
 C     3.427303    -3.574755     3.782818
 C     2.664839    -3.101812     2.714432
 C     2.502422    -1.735922     2.525600
 C     1.553626     1.208146     3.283779
 C     1.319108     2.587375     3.180745
 C     0.036875     3.109957     3.289093
 C    -1.048857     2.265306     3.520159
 C    -0.828812     0.898315     3.657839
 C     0.459431     0.376319     3.545340
 C     4.362033    -0.113654     0.878697
 C     5.380900    -0.868674     1.475594
 C     5.889192    -2.009904     0.867227
 C     5.402767    -2.421787    -0.372602
 C     4.424123    -1.658819    -1.001637
 C     3.916035    -0.515040    -0.387411
 C     2.834072     1.883493     0.748111
 C     1.599088     1.337285     0.359901
 C     0.711256     2.047486    -0.435647
 C     1.035620     3.334412    -0.865629
 C     2.256123     3.887709    -0.492729
 C     3.146487     3.166660     0.306852
 H     8.097386     4.028216     2.903097
 H     8.819018     5.115579     4.992342
 H     7.463551     4.835685     7.074534
 H     5.420251     3.464445     7.041845
 H     4.332884    -0.596972     5.136920
 H     4.615567    -3.018968     5.491228
 H     3.564943    -4.644897     3.927372
 H     2.208998    -3.799489     2.014368
 H     1.929886    -1.391594     1.669251
 H     2.148236     3.261401     2.992923
 H    -0.116095     4.182427     3.188102
 H    -2.055325     2.671684     3.603876
 H    -1.661317     0.226717     3.861828
 H     0.605033    -0.691315     3.673101
 H     5.767772    -0.572654     2.444914
 H     6.663930    -2.585515     1.369548
 H     5.791488    -3.320843    -0.847738
 H     4.048330    -1.948665    -1.981724
 H     3.161189     0.060974    -0.910733
 H     1.312586     0.348145     0.703978
 H    -0.243680     1.600383    -0.705809
 H     0.338597     3.899600    -1.481750
 H     2.523433     4.890478    -0.820533
 H     4.090096     3.620195     0.591813
