   58
scf done: -1979.403633
 I    -1.684003     3.550026    -0.181920
 I    -1.685045    -3.549564     0.181918
 C     0.801934     0.852724     0.056450
 C     0.801684    -0.852977    -0.056395
 C    -0.696577    -0.702776     0.040822
 C    -1.843521    -1.433389     0.086704
 C    -3.092042    -0.725278     0.048160
 C    -4.342290    -1.391611     0.092865
 C    -5.531684    -0.702171     0.047066
 C    -5.531473     0.703796    -0.046879
 C    -4.341873     1.392875    -0.092717
 C    -3.091827     0.726164    -0.048028
 C    -1.843102     1.433901    -0.086589
 C    -0.696372     0.702954    -0.040719
 C     1.323324     1.353040     1.383831
 C     0.758958     1.256565     2.645210
 C     1.462934     1.772004     3.738970
 C     2.707014     2.379997     3.558302
 C     3.252943     2.523324     2.279572
 C     2.545477     2.023892     1.189227
 C     2.766976     2.161529    -0.256353
 C     3.767830     2.823186    -0.962524
 C     3.651315     2.934064    -2.350211
 C     2.539133     2.412272    -3.013495
 C     1.540487     1.733762    -2.307349
 C     1.672066     1.582468    -0.934879
 C     1.671663    -1.582978     0.934867
 C     1.540148    -1.734223     2.307345
 C     2.538677    -2.412977     3.013431
 C     3.650679    -2.935053     2.350075
 C     3.767119    -2.824223     0.962375
 C     2.766377    -2.162340     0.256266
 C     2.544827    -2.024629    -1.189300
 C     3.252062    -2.524271    -2.279706
 C     2.706088    -2.380761    -3.558392
 C     1.462176    -1.772387    -3.738969
 C     0.758437    -1.256742    -2.645158
 C     1.322872    -1.353403    -1.383820
 H    -4.344538    -2.476040     0.164258
 H    -6.473565    -1.245835     0.083482
 H    -6.473189     1.247746    -0.083265
 H    -4.343791     2.477304    -0.164117
 H    -0.220070     0.801156     2.780506
 H     1.034260     1.704968     4.736997
 H     3.244895     2.770877     4.420012
 H     4.200710     3.040477     2.140964
 H     4.615516     3.266786    -0.443340
 H     4.422920     3.452117    -2.916787
 H     2.444671     2.536840    -4.090350
 H     0.669884     1.352437    -2.829860
 H     0.669669    -1.352689     2.829914
 H     2.444257    -2.537498     4.090295
 H     4.422201    -3.453284     2.916599
 H     4.614649    -3.268051     0.443132
 H     4.199684    -3.041706    -2.141175
 H     3.243788    -2.771794    -4.420145
 H     1.033451    -1.705228    -4.736966
 H    -0.220458    -0.801022    -2.780369
