   54
FINAL HEAT OF FORMATION = -1307.542551
 C     9.151545     5.494732    10.803922
 C     7.722769     6.217663    11.453139
 C     7.553318     4.318296     9.223456
 C     6.432544     4.876215     9.723028
 C     9.140058     3.991296    10.955187
 C     9.840911     3.245488    11.894042
 H    10.494594     3.741019    12.608016
 C     9.687991     1.854306    11.927195
 H    10.240537     1.270713    12.660936
 C     8.830143     1.210159    11.039053
 H     8.712535     0.128840    11.081146
 C     8.109485     1.952066    10.099802
 H     7.415738     1.468023     9.414869
 C     8.271497     3.327707    10.063158
 C     9.362115     5.840679     9.346016
 C    10.275525     6.754487     8.838915
 H    10.939636     7.291972     9.512127
 C    10.324946     6.990071     7.459869
 H    11.043624     7.704346     7.062838
 C     9.458833     6.328377     6.592796
 H     9.500777     6.528940     5.523786
 C     8.527742     5.414079     7.093368
 H     7.829300     4.904823     6.431979
 C     8.489345     5.175763     8.457512
 C     6.764438     5.197547    12.044665
 C     6.608698     4.902655    13.392144
 H     7.204119     5.425862    14.136856
 C     5.694338     3.918069    13.784099
 H     5.572115     3.691116    14.841419
 C     4.946689     3.223438    12.836718
 H     4.239538     2.460123    13.155872
 C     5.110866     3.495680    11.475255
 H     4.552912     2.943041    10.721828
 C     6.015899     4.471567    11.091434
 C     6.972150     7.062180    10.435607
 C     7.004588     8.446154    10.345473
 H     7.604356     9.022226    11.046849
 C     6.276004     9.090792     9.339370
 H     6.301042    10.176768     9.272352
 C     5.527593     8.357182     8.422442
 H     4.967383     8.872634     7.644658
 C     5.502889     6.960451     8.490534
 H     4.942324     6.373641     7.765494
 C     6.223870     6.326468     9.488745
 C     9.849941     6.306889    11.859747
 C    11.109856     6.544762    12.376771
 H    12.007085     6.081206    11.971102
 C    11.164315     7.418833    13.471123
 H    12.126315     7.644876    13.927381
 C    10.008145     8.007264    13.999530
 H    10.104849     8.675699    14.853047
 C     8.738262     7.752122    13.462191
 H     7.843825     8.206964    13.883208
 C     8.701289     6.887628    12.381631
