   74
FINAL HEAT OF FORMATION = -1244.718296
 C     0.834850     5.549861     9.037880
 C     1.599212     5.621429     7.663708
 C     0.870080     3.982908     9.685889
 C     1.834219     7.071614     7.183964
 C    -0.465843     3.724613    10.430485
 C    -0.583306     6.243717     8.711671
 C     2.056135     3.793735    10.708951
 C    -1.487955     6.500697     9.939154
 C     1.725756     7.941278     9.509562
 C     3.566986     2.589195     9.071072
 C     1.486987     6.527484    10.085175
 C    -0.325787     7.710279     8.167679
 C    -1.319267     5.493692     7.586604
 C     1.912792     2.462332    11.500380
 C     0.926750     1.391570     9.498651
 C     0.623761     6.687803    11.353655
 C     0.475711     7.717153     6.867926
 C     1.067437     2.738323     8.714647
 C     0.368195     8.593723     9.210855
 C     2.060151     1.272751    10.537118
 C    -0.552649     2.403219    11.192395
 C     3.434404     3.788817    10.020293
 C     3.435110     1.291183     9.870844
 C     2.446566     2.637093     8.023822
 C    -0.514183     5.524598     6.275114
 C    -0.420885     1.254544    10.198425
 C    -0.740457     7.311801    11.016026
 C     0.572309     2.367065    12.228784
 C     2.576406     7.878801     8.244660
 C    -0.484544     8.720122    10.472099
 C     0.862767     4.902497     6.511441
 C    -0.303918     6.961090     5.793800
 H     2.471175     6.151752    10.372079
 H     4.543131     2.622622     8.567478
 H    -1.528443     2.358264    11.696758
 H    -1.240698     1.294718     9.465764
 H     3.547647     7.410238     8.463715
 H     0.749302     3.836678     6.680412
 H     0.529706     9.590881     8.774029
 H     2.252154     8.527762    10.277525
 H     3.605890     4.722918     9.474729
 H     1.155156     7.353318    12.050774
 H     4.224860     1.221057    10.633791
 H     3.549495     0.421631     9.206964
 H    -1.323467     8.127083     7.959852
 H    -2.347085     7.094452     9.591041
 H    -1.434353     9.221804    10.235922
 H     0.532525     1.439820    12.819408
 H     0.502401     5.742836    11.886327
 H     2.040391     4.587584    11.457116
 H     0.458666     3.201773    12.936578
 H     2.786124     8.893916     7.876460
 H     2.590337     5.184781     7.794985
 H     4.216828     3.736012    10.792351
 H     0.266559     2.734468     7.968208
 H     2.730394     2.432720    12.236454
 H     0.244192     6.960675     4.840160
 H    -1.266278     7.462795     5.612859
 H    -1.513982     4.453239     7.875516
 H     2.441476     7.023430     6.267766
 H    -0.487244     0.278834    10.702664
 H    -1.288304     3.762500     9.709830
 H    -1.050794     4.947981     5.508601
 H     0.030238     9.338061    11.222724
 H    -0.642835     4.513718    11.154556
 H     2.461966     1.709668     7.431721
 H     2.634363     3.439272     7.314633
 H    -1.919706     5.590906    10.349423
 H    -1.355272     7.365712    11.925313
 H     0.630324     8.759123     6.548970
 H     1.032300     0.585484     8.757728
 H     1.472159     5.001357     5.600353
 H    -2.303515     5.961613     7.428957
 H     1.934929     0.333859    11.097583
