   23
FINAL HEAT OF FORMATION =  -739.885930
 C     7.906173     5.716414     9.839815
 C     8.089010     7.000062    10.321691
 C     7.045300     7.919143    10.232229
 C     5.837133     7.524716     9.655699
 C     5.701765     6.232909     9.189283
 N     6.726025     5.353439     9.288007
 C     6.530919     3.982793     8.770438
 C     7.541460     2.826511     8.889582
 C     5.397846     3.015647     9.181955
 C     6.293659     3.603849     7.290591
 C     6.290978     2.295946     8.131895
 I     6.019291     0.325724     7.393333
 H     8.672643     4.949009     9.880721
 H     9.044353     7.267406    10.764802
 H     7.169239     8.932131    10.608915
 H     4.998480     8.210286     9.567888
 H     4.791125     5.856586     8.732644
 H     7.710204     2.411656     9.888618
 H     8.460943     2.900938     8.299851
 H     4.382112     3.264272     8.858245
 H     5.430135     2.623740    10.203100
 H     7.134881     3.742955     6.604675
 H     5.336126     3.894767     6.846922
