   28
FINAL HEAT OF FORMATION =  -442.794442
 B     0.375678     6.651044     5.261534
 H     0.855950     6.079982     6.188558
 B    -1.986886     7.597244     3.934019
 H    -3.165218     7.654254     3.784941
 B    -1.206265     6.170385     4.631760
 H    -1.833991     5.221710     4.978671
 B    -0.942181     8.111511     2.577885
 H    -1.368175     8.471137     1.528144
 B     0.277940     5.892241     3.671485
 H     0.633949     4.809905     3.333271
 B     0.556649     8.409096     4.992188
 H     1.171295     9.111468     5.730192
 B     1.401292     7.251551     3.950257
 H     2.566213     7.055349     3.836891
 B     0.618745     8.676887     3.238932
 H     1.231193     9.490496     2.629204
 B    -1.026681     7.750982     5.412847
 H    -1.557595     7.973023     6.454362
 B    -0.894000     8.974391     4.113644
 H    -1.323528    10.079747     4.212235
 C     0.488708     7.158153     2.541536
 C    -1.173150     6.475222     2.981997
 N     1.012942     6.830464     1.297983
 N    -1.728535     5.671477     1.978384
 H    -1.874031     4.711632     2.277957
 H    -2.584141     6.059143     1.591219
 H     0.510415     7.237044     0.516104
 H     1.166510     5.836964     1.161101
