   50
FINAL HEAT OF FORMATION =  -981.049829
 B     5.748964     3.542158     3.612933
 B     4.206596     4.421359     3.626659
 B     3.590565     4.412573     5.288276
 B     5.736805     5.304436     3.602896
 B     4.397142     5.850296     4.650019
 C     4.454114     3.089740     4.656515
 C     2.752702     1.658489     4.008372
 H     2.112057     2.514318     3.751849
 N     3.935090     1.803973     4.462666
 C     2.166056     0.333118     3.802984
 C     0.862757     0.234083     3.298079
 H     0.306224     1.140134     3.061936
 C     0.276678    -1.013918     3.098988
 H    -0.736094    -1.083188     2.707216
 C     0.989327    -2.171890     3.403934
 H     0.532834    -3.148173     3.250290
 C     2.290812    -2.080763     3.908024
 H     2.844074    -2.987537     4.145549
 C     2.878268    -0.838744     4.107258
 H     3.887925    -0.745938     4.499377
 H     2.436031     4.235406     5.505468
 H     6.062070     2.757063     2.785356
 H     3.473137     4.252485     2.707367
 H     6.091936     5.891212     2.630716
 H     3.781924     6.844142     4.427189
 B     4.754249     3.527945     6.295655
 B     6.280445     4.435803     6.285409
 B     6.895958     4.445248     4.623214
 B     4.732807     5.289413     6.312502
 B     6.061843     5.864826     5.267339
 C     6.059466     3.103798     5.250921
 C     7.793806     1.681854     5.858507
 H     8.453206     2.535758     6.070671
 N     6.595244     1.827167     5.448107
 C     8.361035     0.349056     6.072840
 C     9.685567     0.223861     6.510857
 H    10.281230     1.118567     6.686796
 C    10.240077    -1.036902     6.721210
 H    11.269476    -1.128481     7.061270
 C     9.473477    -2.178861     6.496149
 H     9.905027    -3.164525     6.661069
 C     8.149932    -2.060749     6.059135
 H     7.554678    -2.955332     5.885208
 C     7.594132    -0.806853     5.847516
 H     6.567576    -0.690546     5.508428
 H     8.053750     4.294065     4.403844
 H     4.455108     2.733498     7.119530
 H     7.017707     4.275448     7.203204
 H     4.366232     5.865142     7.287132
 H     6.657778     6.869564     5.493269
