   70
scf done: -1617.251310
 H    -6.122966    -0.877359    -1.658558
 C    -4.342733     0.000263     0.881223
 C    -3.491932     0.000540    -0.233121
 C    -4.130905     0.000620    -1.483565
 C    -3.325154     0.000576    -2.609962
 C    -5.774312     0.000229     0.356294
 C    -5.633137     0.000536    -1.220130
 H    -3.753163     0.000587    -3.609785
 H    -6.333128    -0.877805     0.702112
 H    -6.333310     0.878034     0.702411
 H    -6.122968     0.878635    -1.658162
 H    -0.435398    -4.576819    -1.194727
 C    -1.477231     0.000015     1.142373
 C    -2.316112    -0.000249     2.254911
 C    -3.744584    -0.000130     2.130524
 C    -1.896797     0.000473    -2.483538
 C    -1.286165     0.000399    -1.239504
 C    -2.106223     0.000425    -0.108758
 C     0.058916    -0.000055     0.981374
 C     0.676312     1.272463     1.612047
 C    -0.140440     2.237853     2.230027
 C     0.356692     3.429302     2.753164
 C     1.715366     3.721194     2.651359
 C     2.546075     2.793433     2.041281
 C     2.065779     1.563425     1.546329
 C     3.079708     0.672602     1.000742
 C     3.079727    -0.672616     1.000671
 C     2.065804    -1.563512     1.546182
 C     2.546119    -2.793512     2.041106
 C     1.715395    -3.721370     2.651042
 C     0.356689    -3.429621     2.752637
 C    -0.140457    -2.238161     2.229515
 C     0.676319    -1.272608     1.611825
 C     0.200209     0.000101    -0.836147
 C     0.765853     1.355013    -1.330968
 C    -0.069180     2.466296    -1.084932
 C     0.257510     3.772430    -1.429641
 C     0.255829    -3.772246    -1.429750
 C    -0.070359    -2.465936    -1.085164
 C     0.765281    -1.355067    -1.330907
 H    -1.897229    -0.000566     3.257882
 H    -4.337712    -0.000388     3.042147
 H    -1.207622     2.077502     2.283684
 H    -0.328110     4.135260     3.215874
 H     2.118649     4.654182     3.035638
 H     3.610321     2.998261     1.953402
 H     3.980076     1.166710     0.641194
 H     3.980120    -1.166665     0.641101
 H     3.610386    -2.998292     1.953327
 H     2.118739    -4.654310     3.035368
 H    -0.328145    -4.135689     3.215134
 H    -1.207672    -2.077954     2.282915
 H    -1.018644     2.307970    -0.591678
 H    -0.433209     4.577354    -1.194345
 H    -1.019927    -2.307166    -0.592245
 H     1.747680    -5.042259    -2.353832
 C     1.467987     4.031730    -2.069300
 C     2.308839     2.964937    -2.335082
 C     1.995646     1.627640    -1.986797
 C     3.019177     0.671346    -2.376727
 C     3.019028    -0.672408    -2.376417
 C     1.995128    -1.628286    -1.986411
 C     2.307842    -2.965722    -2.334517
 C     1.466398    -4.032128    -2.068960
 H    -1.296449     0.000442    -3.389586
 H     1.749609     5.041737    -2.354305
 H     3.254432     3.146429    -2.839946
 H     3.922459     1.137935    -2.766244
 H     3.922238    -1.139367    -2.765647
 H     3.253501    -3.147684    -2.839096
