  212
scf done: -3353.024039
 C     0.855105    -0.002982     0.011060
 C    -0.855105     0.002982    -0.011060
 C     1.491550     0.329318    -1.402030
 C    -1.491550    -0.329318     1.402030
 C    -1.459846     1.405016    -0.434263
 C     1.459846    -1.405016     0.434263
 C     1.447362     1.064428     1.018313
 C    -1.447362    -1.064428    -1.018313
 C     1.061675     1.125243     2.372343
 C    -1.061675    -1.125243    -2.372343
 C    -1.103444    -1.451019     2.169088
 C     1.103444     1.451019    -2.169088
 C     1.094435    -2.610474    -0.195968
 C    -1.094435     2.610474     0.195968
 C     2.508044     1.900170     0.634179
 C    -2.508044    -1.900170    -0.634179
 C    -2.600409     0.391384     1.864462
 C     2.600409    -0.391384    -1.864462
 C     2.533405    -1.474694     1.338029
 C    -2.533405     1.474694    -1.338029
 C     1.652166     2.006002     3.290952
 C    -1.652166    -2.006002    -3.290952
 C    -1.758354    -1.816096     3.350418
 C     1.758354     1.816096    -3.350418
 C     1.730940    -3.831651     0.075071
 C    -1.730940     3.831651    -0.075071
 C     3.154355     2.773833     1.524307
 C    -3.154355    -2.773833    -1.524307
 C    -3.306886     0.046988     3.032477
 C     3.306886    -0.046988    -3.032477
 C     3.223090    -2.666471     1.615860
 C    -3.223090     2.666471    -1.615860
 C     2.697134     2.828067     2.843384
 C    -2.697134    -2.828067    -2.843384
 C    -2.863271    -1.051514     3.764625
 C     2.863271     1.051514    -3.764625
 C     2.798010    -3.837584     0.983261
 C    -2.798010     3.837584    -0.983261
 H     0.290744     0.460459     2.727131
 H    -0.290744    -0.460459    -2.727131
 H    -0.279251    -2.053997     1.827186
 H     0.279251     2.053997    -1.827186
 H     0.305843    -2.602686    -0.931569
 H    -0.305843     2.602686     0.931569
 H     2.871109     1.860349    -0.381493
 H    -2.871109    -1.860349     0.381493
 H    -2.958367     1.235865     1.295566
 H     2.958367    -1.235865    -1.295566
 H     2.873177    -0.572008     1.823635
 H    -2.873177     0.572008    -1.823635
 C     1.207479     2.001876     4.771594
 C    -1.207479    -2.001876    -4.771594
 C    -1.337332    -3.033769     4.200132
 C     1.337332     3.033769    -4.200132
 C     1.260669    -5.121722    -0.633645
 C    -1.260669     5.121722     0.633645
 C     4.371532     3.587886     1.035570
 C    -4.371532    -3.587886    -1.035570
 C    -4.553761     0.861341     3.434065
 C     4.553761    -0.861341    -3.434065
 C     4.432729    -2.640437     2.573551
 C    -4.432729     2.640437    -2.573551
 H     3.173419     3.503837     3.540008
 H    -3.173419    -3.503837    -3.540008
 H    -3.384841    -1.336942     4.670392
 H     3.384841     1.336942    -4.670392
 H     3.310366    -4.766267     1.190638
 H    -3.310366     4.766267    -1.190638
 C     5.161064    -0.387942    -4.768826
 C    -5.161064     0.387942     4.768826
 C    -5.064926     4.033147    -2.764612
 C     5.064926    -4.033147     2.764612
 C     4.923674     4.532056     2.121176
 C    -4.923674    -4.532056    -2.121176
 C     5.633124    -0.708123    -2.335002
 C    -5.633124     0.708123     2.335002
 C    -5.519616     1.698554    -2.000880
 C     5.519616    -1.698554     2.000880
 C     5.500291     2.606348     0.635503
 C    -5.500291    -2.606348    -0.635503
 C     4.188971    -2.356725    -3.580108
 C    -4.188971     2.356725     3.580108
 C    -3.994159     2.122731    -3.961955
 C     3.994159    -2.122731     3.961955
 C     3.992818     4.446946    -0.192989
 C    -3.992818    -4.446946     0.192989
 C     1.020241     2.579678    -5.645509
 C    -1.020241    -2.579678     5.645509
 C    -2.093158     6.355235     0.231878
 C     2.093158    -6.355235    -0.231878
 C     1.770552     3.204429     5.556893
 C    -1.770552    -3.204429    -5.556893
 C     0.091539     3.742165    -3.640830
 C    -0.091539    -3.742165     3.640830
 C     0.215310     5.403956     0.270997
 C    -0.215310    -5.403956    -0.270997
 C    -0.332241     2.045530     4.890489
 C     0.332241    -2.045530    -4.890489
 C     2.496075     4.059495    -4.241796
 C    -2.496075    -4.059495     4.241796
 C    -1.373330     4.952686     2.165847
 C     1.373330    -4.952686    -2.165847
 C     1.723383     0.706776     5.441633
 C    -1.723383    -0.706776    -5.441633
 H     0.729196     3.442537    -6.257345
 H    -0.729196    -3.442537     6.257345
 H    -1.715458     7.238485     0.759699
 H     1.715458    -7.238485    -0.759699
 H     1.379623     3.188573     6.580850
 H    -1.379623    -3.188573    -6.580850
 H     1.882592     2.107664    -6.127786
 H    -1.882592    -2.107664     6.127786
 H    -3.150623     6.240819     0.496852
 H     3.150623    -6.240819    -0.496852
 H     2.863708     3.179796     5.627697
 H    -2.863708    -3.179796    -5.627697
 H     0.194090     1.860406    -5.660747
 H    -0.194090    -1.860406     5.660747
 H    -2.028990     6.561938    -0.842553
 H     2.028990    -6.561938     0.842553
 H     1.478065     4.158366     5.103059
 H    -1.478065    -4.158366    -5.103059
 H     2.215053     4.926866    -4.852354
 H    -2.215053    -4.926866     4.852354
 H    -1.022377     5.859673     2.674316
 H     1.022377    -5.859673    -2.674316
 H     1.410389     0.665377     6.492778
 H    -1.410389    -0.665377    -6.492778
 H     2.739047     4.419068    -3.235590
 H    -2.739047    -4.419068     3.235590
 H    -0.768575     4.114662     2.523532
 H     0.768575    -4.114662    -2.523532
 H     1.333818    -0.183320     4.937039
 H    -1.333818     0.183320    -4.937039
 H     3.406903     3.630320    -4.672915
 H    -3.406903    -3.630320     4.672915
 H    -2.411518     4.775753     2.468778
 H     2.411518    -4.775753    -2.468778
 H     2.818020     0.658372     5.412722
 H    -2.818020    -0.658372    -5.412722
 H    -0.176478     4.584382    -4.289888
 H     0.176478    -4.584382     4.289888
 H     0.569382     6.303002     0.791761
 H    -0.569382    -6.303002    -0.791761
 H    -0.624414     2.011604     5.947585
 H     0.624414    -2.011604    -5.947585
 H    -0.773004     3.072571    -3.588673
 H     0.773004    -3.072571     3.588673
 H     0.330206     5.572532    -0.805981
 H    -0.330206    -5.572532     0.805981
 H    -0.734715     2.969241     4.461237
 H     0.734715    -2.969241    -4.461237
 H     0.264872     4.141205    -2.636677
 H    -0.264872    -4.141205     2.636677
 H     0.867390     4.573083     0.554582
 H    -0.867390    -4.573083    -0.554582
 H    -0.816202     1.203653     4.388705
 H     0.816202    -1.203653    -4.388705
 H     6.031290    -1.006201    -5.017544
 H    -6.031290     1.006201     5.017544
 H    -5.912954     3.959462    -3.455050
 H     5.912954    -3.959462     3.455050
 H     5.776897     5.092409     1.722017
 H    -5.776897    -5.092409    -1.722017
 H     4.446476    -0.474445    -5.595576
 H    -4.446476     0.474445     5.595576
 H    -4.353706     4.749813    -3.191194
 H     4.353706    -4.749813     3.191194
 H     4.173065     5.260645     2.448662
 H    -4.173065    -5.260645    -2.448662
 H     5.502280     0.652403    -4.718493
 H    -5.502280    -0.652403     4.718493
 H    -5.443230     4.445408    -1.822150
 H     5.443230    -4.445408     1.822150
 H     5.275472     3.982701     3.001807
 H    -5.275472    -3.982701    -3.001807
 H     6.527946    -1.288617    -2.592898
 H    -6.527946     1.288617     2.592898
 H    -6.386652     1.662856    -2.672565
 H     6.386652    -1.662856     2.672565
 H     6.379908     3.158865     0.281439
 H    -6.379908    -3.158865    -0.281439
 H     5.931243     0.341052    -2.222962
 H    -5.931243    -0.341052     2.222962
 H    -5.865308     2.049698    -1.021412
 H     5.865308    -2.049698     1.021412
 H     5.807591     1.992488     1.490457
 H    -5.807591    -1.992488    -1.490457
 H     5.273386    -1.059487    -1.362433
 H    -5.273386     1.059487     1.362433
 H    -5.149372     0.675427    -1.878291
 H     5.149372    -0.675427     1.878291
 H     5.183846     1.929908    -0.165227
 H    -5.183846    -1.929908     0.165227
 H     5.079153    -2.939719    -3.847825
 H    -5.079153     2.939719     3.847825
 H    -4.852275     2.087429    -4.645041
 H     4.852275    -2.087429     4.645041
 H     4.872133     4.991576    -0.558817
 H    -4.872133    -4.991576     0.558817
 H     3.786530    -2.770426    -2.650556
 H    -3.786530     2.770426     2.650556
 H    -3.571551     1.115765    -3.904912
 H     3.571551    -1.115765     3.904912
 H     3.613344     3.836547    -1.018329
 H    -3.613344    -3.836547     1.018329
 H     3.438498    -2.503632    -4.365134
 H    -3.438498     2.503632     4.365134
 H    -3.236843     2.780298    -4.404482
 H     3.236843    -2.780298     4.404482
 H     3.222177     5.182001     0.063692
 H    -3.222177    -5.182001    -0.063692
