   62
scf done: -6533.964595
Br     1.768280     3.322982    -0.380148
Br     1.768415    -3.322713     0.380726
 C    -0.865454     0.842388    -0.199182
 C    -0.865367    -0.842471     0.198969
 C     0.654429    -0.692651     0.127471
 C     1.816593    -1.413450     0.186924
 C     3.068273    -0.720061     0.082343
 C     4.319320    -1.388461     0.152596
 C     5.509521    -0.701083     0.076296
 C     5.509474     0.701550    -0.075826
 C     4.319225     1.388846    -0.152158
 C     3.068224     0.720361    -0.081988
 C     1.816507     1.413669    -0.186633
 C     0.654370     0.692801    -0.127322
 C    -1.429754     1.101744    -1.592800
 C    -2.768616     0.783619    -1.880927
 C    -3.315890     1.024879    -3.139251
 C    -2.532490     1.586739    -4.150181
 C    -1.200490     1.897919    -3.884451
 C    -0.656468     1.656348    -2.619865
 C    -1.409176     1.811462     0.862454
 C    -0.773782     1.903627     2.114507
 C    -1.227540     2.779695     3.097226
 C    -2.330070     3.601133     2.854643
 C    -2.962551     3.535852     1.614884
 C    -2.505434     2.656024     0.630646
 C    -1.408624    -1.811730    -0.862736
 C    -0.773090    -1.903674    -2.114738
 C    -1.226398    -2.779973    -3.097452
 C    -2.328601    -3.601867    -2.854924
 C    -2.961225    -3.536784    -1.615232
 C    -2.504557    -2.656718    -0.630988
 C    -1.429984    -1.101813     1.592450
 C    -0.656817    -1.656013     2.619830
 C    -1.201106    -1.897499     3.884321
 C    -2.533250    -1.586594     4.149644
 C    -3.316535    -1.025134     3.138394
 C    -2.769003    -0.783985     1.880166
 H     4.323526    -2.465284     0.273743
 H     6.449893    -1.241735     0.135090
 H     6.449809     1.242274    -0.134572
 H     4.323374     2.465671    -0.273274
 H    -3.388864     0.327022    -1.116004
 H    -4.353113     0.763876    -3.331864
 H    -2.955838     1.772750    -5.133558
 H    -0.574598     2.331290    -4.660183
 H     0.382106     1.905589    -2.439887
 H     0.086820     1.279780     2.329107
 H    -0.713320     2.821889     4.053696
 H    -2.683800     4.287994     3.618945
 H    -3.812652     4.178336     1.399862
 H    -3.004625     2.647018    -0.330215
 H     0.087249    -1.279457    -2.329309
 H    -0.712088    -2.821997    -4.053882
 H    -2.681976    -4.288903    -3.619233
 H    -3.811071    -4.179618    -1.400252
 H    -3.003843    -2.647860     0.329826
 H     0.381873    -1.905023     2.440167
 H    -0.575305    -2.330570     4.660294
 H    -2.956813    -1.772532     5.132943
 H    -4.353874    -0.764352     3.330693
 H    -3.389170    -0.327707     1.114982
