   58
scf done: -1979.431181
 I     3.559566     1.701426    -0.135357
 I    -3.559322     1.701920     0.135281
 C     0.864080    -0.843313     0.032785
 C    -0.864177    -0.843207    -0.032804
 C    -0.705128     0.663740     0.027964
 C    -1.431443     1.820320     0.061445
 C    -0.726454     3.071619     0.034539
 C    -1.393572     4.324754     0.067252
 C    -0.703782     5.516039     0.034236
 C     0.704566     5.515943    -0.034197
 C     1.394187     4.324560    -0.067259
 C     0.726890     3.071521    -0.034585
 C     1.431704     1.820124    -0.061517
 C     0.705226     0.663644    -0.028073
 C     1.457725    -1.418407     1.308610
 C     1.412910    -0.933564     2.610685
 C     2.040441    -1.659450     3.631535
 C     2.708250    -2.853587     3.346554
 C     2.798083    -3.319816     2.031466
 C     2.188320    -2.587572     1.013586
 C     2.265816    -2.727581    -0.445733
 C     2.962069    -3.646726    -1.229044
 C     3.016723    -3.451828    -2.612142
 C     2.402054    -2.340409    -3.194402
 C     1.686671    -1.426815    -2.409697
 C     1.590911    -1.637005    -1.037889
 C    -1.591128    -1.636728     1.037913
 C    -1.686846    -1.426462     2.409713
 C    -2.402366    -2.339909     3.194466
 C    -3.017207    -3.451264     2.612265
 C    -2.962589    -3.646236     1.229177
 C    -2.266207    -2.727230     0.445818
 C    -2.188695    -2.587310    -1.013510
 C    -2.798602    -3.319504    -2.031341
 C    -2.708710    -2.853361    -3.346455
 C    -2.040699    -1.659352    -3.631505
 C    -1.413031    -0.933518    -2.610704
 C    -1.457910    -1.418282    -1.308599
 H    -2.476839     4.331349     0.118942
 H    -1.247956     6.455774     0.060941
 H     1.248871     6.455602    -0.060866
 H     2.477454     4.330998    -0.118959
 H     0.921774     0.007829     2.838113
 H     2.012319    -1.285428     4.651213
 H     3.185821    -3.409434     4.148959
 H     3.361484    -4.221708     1.806753
 H     3.478649    -4.486858    -0.772179
 H     3.561957    -4.155911    -3.234982
 H     2.481567    -2.177843    -4.265664
 H     1.234754    -0.559054    -2.875021
 H    -1.234793    -0.558751     2.874998
 H    -2.481854    -2.177267     4.265719
 H    -3.562536    -4.155236     3.235146
 H    -3.479291    -4.486316     0.772353
 H    -3.362152    -4.221288    -1.806566
 H    -3.186394    -3.409165    -4.148822
 H    -2.012529    -1.285385    -4.651203
 H    -0.921736     0.007774    -2.838195
