   66
scf done: -1540.028053
 C     0.002821     4.227932     1.606637
 C     0.003514     4.714214     0.310057
 C     0.003612     4.149939    -2.163161
 H     0.003181     4.929639     2.441335
 H     0.004401     5.788729     0.123814
 H     0.004489     5.199656    -2.458335
 C     0.001202     1.916860     0.851353
 C     0.001655     2.835149     1.889278
 C     0.003046     3.806292    -0.782452
 C     0.003053     3.153017    -3.124589
 C     0.001919     1.773697    -2.778856
 C     0.001331     1.415904    -1.447192
 C     0.001904     2.420209    -0.464619
 C    -0.000048     0.374842     0.885994
 C    -1.270974    -0.149670     1.609938
 C    -2.230173     0.744236     2.123491
 C    -3.415270     0.323314     2.726465
 C    -3.706771    -1.038428     2.814701
 C    -2.785737    -1.945045     2.307011
 C    -1.561454    -1.535499     1.735073
 C    -0.675671    -2.614084     1.316873
 C     0.670678    -2.615141     1.317159
 C     1.557990    -1.537976     1.735750
 C     1.269689    -0.151679     1.610684
 C     0.000205     0.003323    -0.835220
 C    -1.356313    -0.618532    -1.266960
 C    -2.465011     0.246224    -1.132256
 C    -3.771870    -0.112410    -1.446016
 C    -4.034103    -1.392898    -1.935747
 C    -2.968198    -2.264977    -2.090049
 C    -1.629102    -1.916299    -1.774512
 C    -0.674213    -2.983149    -2.039772
 C     0.671477    -2.983879    -2.039782
 C     1.627520    -1.918154    -1.774149
 C     1.356091    -0.620214    -1.266327
 H     0.001084     2.510511     2.928827
 H     0.003498     3.429059    -4.179569
 H     0.001565     1.020407    -3.565822
 H    -2.077293     1.812152     2.028004
 H    -4.118984     1.066965     3.100989
 H    -4.636546    -1.386818     3.264549
 H    -2.993480    -3.014033     2.364432
 H    -1.172986    -3.553976     1.072582
 H     1.166621    -3.555816     1.073053
 H    -2.308128     1.252055    -0.757380
 H    -4.576949     0.607870    -1.303022
 H    -5.046710    -1.703001    -2.193243
 H    -3.152398    -3.266894    -2.478389
 H    -1.143068    -3.927586    -2.322143
 H     1.139313    -3.928815    -2.322172
 H     2.309996     1.249017    -0.755677
 C     2.781479    -1.949468     2.307979
 C     3.703740    -1.044316     2.816071
 C     3.414302     0.317873     2.728015
 C     2.230035     0.740691     2.124715
 C     2.966327    -2.268355    -2.089262
 C     4.033239    -1.397665    -1.934165
 C     3.772382    -0.117040    -1.444023
 C     2.465829     0.243114    -1.130791
 H     2.987569    -3.018781     2.365322
 H     4.632887    -1.394176     3.266076
 H     4.119021     1.060410     3.102865
 H     2.078807     1.808857     2.029377
 H     3.149444    -3.270353    -2.477918
 H     5.045576    -1.708935    -2.191324
 H     4.578301     0.602148    -1.300300
