   66
scf done: -2159.162327
Cl     2.944558     2.535456     0.603632
Cl     0.711901    -3.267086    -0.643004
 C     0.448762    -0.548210    -0.311405
 C    -1.015282    -0.236246     0.019573
 C    -0.454201     1.419596     0.049338
 C     0.933429     0.753453    -0.031055
 C     2.283853     0.987583     0.067398
 C     3.213766    -0.066282    -0.231469
 C     4.622026     0.134178    -0.224141
 C     5.495787    -0.891075    -0.520480
 C     5.002756    -2.177889    -0.831930
 C     3.644098    -2.414077    -0.840296
 C     2.712118    -1.380597    -0.548368
 C     1.295722    -1.606102    -0.525544
 C    -1.353152    -0.966596     1.368202
 C    -0.334479    -1.463674     2.205491
 C    -0.613668    -2.175464     3.373444
 C    -1.933527    -2.424451     3.753698
 C    -2.961509    -1.954063     2.936317
 C    -2.673329    -1.249131     1.763893
 C    -2.109613    -0.598351    -0.991288
 C    -1.917408    -1.587017    -1.967102
 C    -2.936718    -1.948551    -2.852238
 C    -4.185193    -1.325842    -2.787582
 C    -4.396357    -0.338590    -1.822003
 C    -3.373289     0.014332    -0.938947
 C    -0.807201     2.270721     1.368137
 C    -2.325798     2.253493     1.661431
 C    -0.389117     3.766490     1.333725
 C    -0.093399     1.714869     2.626842
 C    -0.650450     2.217618    -1.373858
 C    -0.564509     1.315207    -2.637329
 C    -1.980776     2.995003    -1.510859
 C     0.510028     3.229906    -1.592746
 H     5.009075     1.121257     0.014217
 H     6.569898    -0.705394    -0.514367
 H     5.695513    -2.986102    -1.066474
 H     3.267161    -3.405892    -1.076560
 H     0.708980    -1.288436     1.963402
 H     0.212457    -2.538129     3.985564
 H    -2.155590    -2.984395     4.662211
 H    -4.002377    -2.146210     3.197994
 H    -3.511100    -0.940560     1.149381
 H    -0.956626    -2.079396    -2.061488
 H    -2.746888    -2.718598    -3.600533
 H    -4.980904    -1.603990    -3.478618
 H    -5.361998     0.163025    -1.753718
 H    -3.569570     0.784005    -0.198854
 H    -2.704154     1.240989     1.816184
 H    -2.913047     2.738303     0.876589
 H    -2.509787     2.807847     2.591940
 H    -0.861599     4.345907     0.538843
 H    -0.705459     4.216284     2.284420
 H     0.694863     3.890828     1.266641
 H    -0.252836     2.417557     3.455499
 H     0.988438     1.626142     2.482583
 H    -0.483769     0.751293     2.948535
 H     0.246193     0.580895    -2.589615
 H    -1.496127     0.796440    -2.859609
 H    -0.352069     1.966568    -3.495278
 H    -2.854911     2.350447    -1.404983
 H    -2.020195     3.421226    -2.522780
 H    -2.074671     3.830153    -0.812759
 H     0.258552     3.842847    -2.468685
 H     0.697077     3.909145    -0.765356
 H     1.445453     2.712225    -1.828081
