   66
scf done: -1140.877371
 N     1.416812    -0.253836     0.828312
 C     2.696321    -0.732424     0.348332
 C     0.879652     0.990776     0.496341
 C     2.762333    -1.589955    -0.765158
 C     4.023762    -2.034324    -1.197275
 H     4.071727    -2.689634    -2.069115
 C     3.873115    -0.402503     1.065415
 C     5.099808    -0.887489     0.606778
 H     6.004586    -0.631199     1.161090
 C     5.202767    -1.690159    -0.538470
 C     1.543010    -2.092532    -1.500800
 H     0.621186    -1.854748    -0.966680
 H     1.604741    -3.181636    -1.626480
 H     1.479808    -1.655440    -2.507514
 B     0.643536     1.369743    -1.184324
 H     1.086533     0.626632    -1.991050
 B     0.840642     2.340143     1.496048
 H     1.374039     2.220517     2.549255
 C     6.549484    -2.173203    -1.021652
 H     7.091975    -2.702394    -0.224926
 H     7.180480    -1.329325    -1.337932
 H     6.447128    -2.854979    -1.874944
 C     3.834440     0.438478     2.319443
 H     3.557892     1.477553     2.104099
 H     4.818993     0.445720     2.800851
 H     3.109282     0.057543     3.052788
 B     1.710489     2.314382    -0.065280
 H     2.886194     2.199724    -0.170230
 B     0.706165     3.158171    -1.261385
 H     1.222190     3.725456    -2.171755
 B     0.770641     3.759681     0.429615
 H     1.334697     4.761245     0.737531
 H     1.215283    -0.511638     1.786680
 N    -1.416823    -0.253814    -0.828249
 C    -2.696356    -0.732353    -0.348275
 C    -0.879615     0.990793    -0.496324
 C    -2.762415    -1.589838     0.765252
 C    -4.023862    -2.034181     1.197342
 H    -4.071862    -2.689454     2.069209
 C    -3.873121    -0.402493    -1.065437
 C    -5.099832    -0.887459    -0.606826
 H    -6.004585    -0.631221    -1.161203
 C    -5.202840    -1.690053     0.538471
 C    -1.543126    -2.092415     1.500946
 H    -0.621283    -1.854685     0.966837
 H    -1.604893    -3.181511     1.626681
 H    -1.479936    -1.655274     2.507641
 B    -0.643478     1.369821     1.184328
 H    -1.086511     0.626770     1.991089
 B    -0.840541     2.340117    -1.496087
 H    -1.373943     2.220470    -2.549289
 C    -6.549575    -2.173080     1.021618
 H    -7.092039    -2.702293     0.224888
 H    -7.180579    -1.329192     1.337852
 H    -6.447251    -2.854832     1.874933
 C    -3.834396     0.438352    -2.319553
 H    -3.557877     1.477455    -2.104306
 H    -4.818925     0.445528    -2.801010
 H    -3.109196     0.057350    -3.052822
 B    -1.710390     2.314461     0.065244
 H    -2.886100     2.199861     0.170203
 B    -0.706027     3.158255     1.261313
 H    -1.222027     3.725601     2.171660
 B    -0.770477     3.759697    -0.429713
 H    -1.334490     4.761274    -0.737670
 H    -1.215280    -0.511669    -1.786600
