   62
scf done: -1981.968926
 I     3.560770     1.576264    -0.216068
 I    -3.560839     1.576084     0.216342
 C     0.850818    -1.041680    -0.159694
 C    -0.850755    -1.041744     0.159608
 C    -0.700127     0.480530     0.095554
 C    -1.428461     1.641731     0.119943
 C    -0.724978     2.893732     0.047526
 C    -1.393360     4.148515     0.085288
 C    -0.704947     5.342031     0.042046
 C     0.704651     5.342070    -0.042233
 C     1.393131     4.148594    -0.085394
 C     0.724825     2.893773    -0.047569
 C     1.428382     1.641813    -0.119900
 C     0.700117     0.480575    -0.095426
 C     1.167449    -1.610253    -1.538088
 C     1.733558    -0.832963    -2.556097
 C     2.023543    -1.380937    -3.811157
 C     1.744826    -2.722253    -4.076093
 C     1.165991    -3.509137    -3.074472
 C     0.879952    -2.956894    -1.826355
 C     1.761976    -1.590492     0.947645
 C     1.787753    -0.958269     2.205512
 C     2.612571    -1.412676     3.233595
 C     3.449062    -2.514867     3.032081
 C     3.451318    -3.143284     1.786153
 C     2.620786    -2.684806     0.757638
 C    -1.761890    -1.590503    -0.947767
 C    -1.787829    -0.958112    -2.205552
 C    -2.612632    -1.412513    -3.233645
 C    -3.448960    -2.514847    -3.032235
 C    -3.451059    -3.143421    -1.786398
 C    -2.620531    -2.684962    -0.757859
 C    -1.167360    -1.610461     1.537952
 C    -0.879706    -2.957075     1.826178
 C    -1.165733    -3.509395     3.074263
 C    -1.744707    -2.722620     4.075888
 C    -2.023568    -1.381326     3.811000
 C    -1.733587    -0.833269     2.555973
 H    -2.478694     4.156136     0.155456
 H    -1.251033     6.284895     0.074725
 H     1.250684     6.284962    -0.074970
 H     2.478467     4.156277    -0.155550
 H     1.955769     0.216077    -2.381570
 H     2.467697    -0.750534    -4.581978
 H     1.967897    -3.150564    -5.053365
 H     0.927567    -4.554759    -3.269135
 H     0.410469    -3.583424    -1.070734
 H     1.155461    -0.093429     2.391675
 H     2.604204    -0.899323     4.195224
 H     4.098893    -2.869675     3.832361
 H     4.110219    -3.992465     1.602090
 H     2.670011    -3.183300    -0.205744
 H    -1.155669    -0.093163    -2.391631
 H    -2.604397    -0.899045    -4.195215
 H    -4.098793    -2.869629    -3.832523
 H    -4.109828    -3.992720    -1.602407
 H    -2.669620    -3.183607     0.205452
 H    -0.410107    -3.583518     1.070557
 H    -0.927182    -4.554994     3.268895
 H    -1.967767    -3.151001     5.053131
 H    -2.467850    -0.751011     4.581818
 H    -1.955906     0.215757     2.381478
