   62
scf done: -6534.705128
Br     1.774417     3.325969    -0.372507
Br     1.774776    -3.325532     0.373116
 C    -0.866591     0.844902    -0.189273
 C    -0.866436    -0.845015     0.189114
 C     0.654525    -0.693637     0.126159
 C     1.817651    -1.415234     0.185431
 C     3.069601    -0.720037     0.081952
 C     4.321855    -1.390338     0.151643
 C     5.514105    -0.701977     0.075775
 C     5.514002     0.702915    -0.075056
 C     4.321653     1.391093    -0.151028
 C     3.069499     0.720620    -0.081388
 C     1.817467     1.415641    -0.184946
 C     0.654417     0.693915    -0.125827
 C    -1.439160     1.122574    -1.573861
 C    -2.780222     0.807433    -1.857762
 C    -3.335566     1.062291    -3.111353
 C    -2.557387     1.637656    -4.121649
 C    -1.222108     1.946783    -3.859323
 C    -0.670679     1.688419    -2.598877
 C    -1.405730     1.794634     0.889844
 C    -0.760659     1.868507     2.139028
 C    -1.206796     2.730559     3.139950
 C    -2.313993     3.555404     2.918671
 C    -2.956412     3.508149     1.680805
 C    -2.505678     2.641284     0.679216
 C    -1.404909    -1.794923    -0.890178
 C    -0.759521    -1.868396    -2.139224
 C    -1.204969    -2.730672    -3.140250
 C    -2.311743    -3.556165    -2.919219
 C    -2.954431    -3.509323    -1.681483
 C    -2.504401    -2.642212    -0.679780
 C    -1.439356    -1.122794     1.573527
 C    -0.670932    -1.688124     2.598868
 C    -1.222634    -1.946564     3.859184
 C    -2.558132    -1.638001     4.121038
 C    -3.336274    -1.063168     3.110400
 C    -2.780664    -0.808272     1.856940
 H     4.326830    -2.471021     0.272124
 H     6.457792    -1.244453     0.133893
 H     6.457605     1.245534    -0.133070
 H     4.326503     2.471768    -0.271606
 H    -3.399813     0.341676    -1.094217
 H    -4.376642     0.802612    -3.303108
 H    -2.987942     1.835934    -5.103277
 H    -0.599454     2.390785    -4.636490
 H     0.372091     1.938431    -2.424540
 H     0.106925     1.244413     2.340275
 H    -0.683714     2.759875     4.095938
 H    -2.662341     4.234132     3.697533
 H    -3.810200     4.156650     1.481635
 H    -3.015412     2.650614    -0.279596
 H     0.107772    -1.243833    -2.340263
 H    -0.681694    -2.759639    -4.096144
 H    -2.659533    -4.235056    -3.698179
 H    -3.807866    -4.158339    -1.482490
 H    -3.014337    -2.651823     0.278927
 H     0.372027    -1.937637     2.424891
 H    -0.600029    -2.390206     4.636595
 H    -2.988899    -1.836299     5.102571
 H    -4.377529    -0.803957     3.301790
 H    -3.400245    -0.342993     1.093092
