   58
scf done: -1979.592186
 I     3.560879     1.717051     0.000243
 I    -3.562329     1.714242    -0.000376
 C     0.870072    -0.836355    -0.000115
 C    -0.869513    -0.837023     0.000041
 C    -0.706604     0.670783    -0.000224
 C    -1.436868     1.827829    -0.000268
 C    -0.728821     3.079331    -0.000192
 C    -1.399000     4.332952    -0.000227
 C    -0.708483     5.526431    -0.000150
 C     0.703961     5.527001    -0.000019
 C     1.395443     4.334079     0.000039
 C     0.726276     3.079914    -0.000045
 C     1.435328     1.828976     0.000012
 C     0.705989     0.671349    -0.000086
 C     1.526226    -1.530991     1.179102
 C     1.564782    -1.172859     2.523710
 C     2.234778    -2.002718     3.434161
 C     2.863218    -3.175864     3.000628
 C     2.871874    -3.515286     1.642381
 C     2.219163    -2.678886     0.734609
 C     2.218969    -2.678685    -0.735724
 C     2.871453    -3.514803    -1.643922
 C     2.862432    -3.174974    -3.002064
 C     2.233855    -2.001711    -3.435087
 C     1.564087    -1.172138    -2.524209
 C     1.525898    -1.530683    -1.179703
 C    -1.524721    -1.531733     1.179749
 C    -1.563243    -1.172988     2.524186
 C    -2.232217    -2.003037     3.435217
 C    -2.859673    -3.176973     3.002399
 C    -2.868382    -3.517048     1.644313
 C    -2.216711    -2.680465     0.735960
 C    -2.216899    -2.680926    -0.734367
 C    -2.868783    -3.518094    -1.642020
 C    -2.860425    -3.178882    -3.000327
 C    -2.233109    -2.005210    -3.434045
 C    -1.563919    -1.174563    -2.523711
 C    -1.525044    -1.532446    -1.179055
 H    -2.486981     4.338715    -0.000320
 H    -1.255008     6.469631    -0.000184
 H     1.249725     6.470642     0.000031
 H     2.483419     4.340724     0.000148
 H     1.108278    -0.249126     2.871841
 H     2.272598    -1.727476     4.488122
 H     3.374752    -3.813484     3.722161
 H     3.406649    -4.401844     1.301083
 H     3.406335    -4.401456    -1.303035
 H     3.373788    -3.812369    -3.723921
 H     2.271404    -1.726154    -4.488975
 H     1.107465    -0.248300    -2.871925
 H    -1.107511    -0.248638     2.871719
 H    -2.270016    -1.727340     4.489058
 H    -3.370418    -3.814733     3.724365
 H    -3.402430    -4.404268     1.303592
 H    -3.402723    -4.405111    -1.300605
 H    -3.371336    -3.817118    -3.721756
 H    -2.271173    -1.730178    -4.488051
 H    -1.108294    -0.250439    -2.871965
