   54
scf done: -1307.722814
 C    -0.000476     0.656142     0.864804
 C    -0.000076     0.657048    -0.864427
 C     0.001190    -1.908986     0.675977
 C     0.001421    -1.908187    -0.678230
 C    -1.226155    -0.020353     1.466572
 C    -2.296612     0.632985     2.074234
 H    -2.316724     1.721059     2.125767
 C    -3.352902    -0.113344     2.617980
 H    -4.185675     0.400962     3.098245
 C    -3.342590    -1.507418     2.546875
 H    -4.166264    -2.081235     2.972295
 C    -2.274813    -2.174428     1.927567
 H    -2.267023    -3.262227     1.861533
 C    -1.226144    -1.435134     1.391218
 C     1.225928    -0.018815     1.466902
 C     2.295394     0.635927     2.074801
 H     2.314033     1.724033     2.126349
 C     3.352529    -0.109024     2.618774
 H     4.184508     0.406341     3.099281
 C     3.344078    -1.503119     2.547603
 H     4.168442    -2.075844     2.973161
 C     2.277328    -2.171516     1.928037
 H     2.270966    -3.259321     1.861984
 C     1.227775    -1.433578     1.391532
 C    -1.225717    -0.018728    -1.467133
 C    -2.296195     0.635289    -2.074010
 H    -2.316224     1.723425    -2.124466
 C    -3.352553    -0.110443    -2.618441
 H    -4.185328     0.404369    -3.098151
 C    -3.342316    -1.504585    -2.548717
 H    -4.166050    -2.077919    -2.974679
 C    -2.274588    -2.172277    -1.930088
 H    -2.266869    -3.260137    -1.865120
 C    -1.225746    -1.433584    -1.393209
 C     1.226456    -0.017300    -1.466788
 C     2.296224     0.638051    -2.073524
 H     2.314917     1.726219    -2.123905
 C     3.353554    -0.106376    -2.617805
 H     4.185790     0.409434    -3.097384
 C     3.345001    -1.500549    -2.548080
 H     4.169518    -2.072855    -2.973910
 C     2.277978    -2.169550    -1.929677
 H     2.271544    -3.257418    -1.864751
 C     1.228177    -1.432132    -1.392886
 C    -0.001385     2.164524     0.697502
 C    -0.002966     3.342988     1.438551
 H    -0.003285     3.357536     2.528293
 C    -0.004024     4.541459     0.704312
 H    -0.005212     5.495098     1.233200
 C    -0.003659     4.542205    -0.699927
 H    -0.004577     5.496385    -1.227849
 C    -0.002183     3.344524    -1.435433
 H    -0.001930     3.360342    -2.525168
 C    -0.001027     2.165242    -0.695654
