   74
scf done: -1244.832250
 C    -0.632101    -0.030540    -0.121477
 C    -0.975920    -1.545485    -0.409376
 C     1.050518     0.186382     0.181168
 C    -2.407764    -1.742481    -0.970946
 C     1.218998     1.318090     1.236996
 C    -1.717746     0.385940     1.006821
 C     1.845182     0.599115    -1.124718
 C    -1.761310     1.898026     1.351559
 C    -2.458107     0.578091    -1.877656
 C     2.773829    -1.724813    -1.568992
 C    -1.028673     0.874125    -1.354850
 C    -3.180163     0.124509     0.438816
 C    -1.589629    -0.503515     2.263117
 C     3.293912     1.068907    -0.781450
 C     3.379014    -0.581289     1.068852
 C    -0.969929     2.386826    -1.028585
 C    -3.427864    -1.351816     0.115545
 C     1.919226    -1.039954     0.720154
 C    -3.479615     0.984380    -0.799574
 C     4.101510    -0.116738    -0.216041
 C     2.663261     1.739159     1.533167
 C     1.959813    -0.553562    -2.149650
 C     4.195200    -1.245963    -1.247418
 C     2.112235    -2.218197    -0.269478
 C    -1.857404    -1.987651     1.930567
 C     3.417286     0.539859     2.108263
 C    -1.977399     2.752393     0.080298
 C     3.307509     2.222894     0.227608
 C    -2.619661    -0.901875    -2.232199
 C    -3.386136     2.475953    -0.462964
 C    -0.879182    -2.453423     0.843491
 C    -3.281111    -2.181574     1.394665
 H    -0.355882     0.667809    -2.191644
 H     2.808878    -2.547411    -2.298868
 H     2.638141     2.559891     2.266247
 H     2.943868     0.212380     3.047206
 H    -1.890301    -1.189860    -3.005823
 H     0.124217    -2.502072     1.257770
 H    -4.496957     0.748556    -1.152230
 H    -2.612772     1.191516    -2.780029
 H     0.971168    -0.902877    -2.469190
 H    -1.230769     2.944745    -1.941996
 H     4.700203    -0.885216    -2.157554
 H     4.797230    -2.078059    -0.849855
 H    -3.865908     0.421230     1.250030
 H    -2.620322     2.053452     2.024026
 H    -4.149155     2.741786     0.285157
 H     4.342920     2.556130     0.400325
 H     0.039121     2.711772    -0.764553
 H     1.362755     1.451644    -1.608828
 H     2.753344     3.088693    -0.167717
 H    -3.621416    -1.085778    -2.651695
 H    -0.298243    -1.915206    -1.182302
 H     2.457975    -0.171651    -3.054811
 H     1.488191    -1.401741     1.660705
 H     3.755475     1.403298    -1.724845
 H    -3.464327    -3.248518     1.192508
 H    -4.030393    -1.857525     2.134178
 H    -0.595004    -0.401089     2.716527
 H    -2.520480    -2.810349    -1.218063
 H     4.461210     0.799267     2.345297
 H     0.754928     1.000825     2.177075
 H    -1.711732    -2.592182     2.838500
 H    -3.582268     3.085482    -1.359132
 H     0.694955     2.211645     0.908224
 H     2.768570    -2.960128     0.212333
 H     1.188602    -2.746762    -0.498347
 H    -0.893789     2.234073     1.916714
 H    -1.873695     3.817908     0.334636
 H    -4.449270    -1.462799    -0.283832
 H     3.895573    -1.466578     1.472588
 H    -1.133305    -3.481374     0.539673
 H    -2.312569    -0.157559     3.019503
 H     5.114554     0.228004     0.047825
