   55
scf done: -1021.683603
 B    -2.272516     0.011793    -1.475116
 H    -1.512209    -0.020817    -2.380842
 B    -3.062841     1.466598    -0.890763
 H    -2.905798     2.480193    -1.487551
 B    -2.962290     1.487938     0.903308
 H    -2.782095     2.514432     1.469366
 B    -2.146383     0.031563     1.487396
 H    -1.308158     0.028416     2.320465
 B    -3.017067    -1.402101     0.963873
 H    -2.852547    -2.422457     1.548044
 B    -3.081172    -1.418403    -0.834978
 H    -2.968857    -2.447253    -1.414605
 B    -4.012332     0.026434    -1.374047
 H    -4.656334     0.008059    -2.374295
 B    -3.882008     0.071225     1.527908
 H    -4.442957     0.107033     2.576569
 B    -4.482605    -0.849559     0.113869
 H    -5.487241    -1.483824     0.168211
 B    -4.461350     0.953890     0.082293
 H    -5.448379     1.615940     0.124751
 N    -0.330876     1.196890    -0.148929
 N    -0.356841    -1.191853     0.006722
 C    -1.704477     0.820666    -0.039188
 C    -1.730482    -0.793603     0.010392
 C     0.449127    -0.019612    -0.432968
 H     1.402306     0.010811     0.105175
 H     0.663708    -0.096891    -1.513400
 C    -0.026560    -2.444890    -0.676592
 H    -0.098940    -2.334172    -1.774682
 H    -0.774799    -3.188018    -0.374045
 C     1.360572    -2.937145    -0.308230
 C     1.731813    -3.083494     1.037533
 H     1.024335    -2.810147     1.820388
 C     2.996140    -3.569690     1.375956
 H     3.271428    -3.680759     2.425287
 C     3.908410    -3.918922     0.372650
 H     4.895111    -4.299712     0.637746
 C     3.547491    -3.775924    -0.969056
 H     4.252296    -4.042382    -1.757195
 C     2.280438    -3.284976    -1.304896
 H     2.006359    -3.172218    -2.355057
 C     0.220469     2.103794     0.868480
 H     0.413921     1.581811     1.821070
 H    -0.544051     2.864341     1.064993
 C     1.493134     2.778563     0.392908
 C     2.623657     2.816713     1.218584
 H     2.596818     2.325715     2.192785
 C     3.787542     3.477445     0.808810
 H     4.659154     3.497432     1.463688
 C     3.832764     4.103518    -0.438934
 H     4.738569     4.616833    -0.762826
 C     2.708683     4.066053    -1.273105
 H     2.737476     4.553070    -2.248404
 C     1.548130     3.409008    -0.859906
 H     0.676602     3.377398    -1.513524
