   54
scf done:  -983.602570
 B    -1.199015     1.966566     0.000000
 B    -0.796164     2.947120     1.465254
 B     0.983398     3.078530     1.461140
 B     1.507545     2.161778     0.000000
 B    -1.411904     3.738034     0.000000
 B    -0.008878     4.442386     0.883429
 B     1.476881     3.954125     0.000000
 C     0.185606     1.682654     0.988468
 N     0.317808     0.439515     1.594296
 C    -0.722564    -0.059785     2.507574
 H    -1.663280    -0.120118     1.945147
 H    -0.887522     0.636283     3.344493
 C    -0.346082    -1.418694     3.056864
 C    -0.221618    -1.613611     4.438685
 H    -0.385152    -0.775291     5.117505
 C     0.106326    -2.871319     4.957707
 H     0.197540    -3.006228     6.035853
 C     0.320340    -3.949115     4.095414
 H     0.577189    -4.929817     4.496759
 C     0.203884    -3.763263     2.712703
 H     0.369260    -4.601202     2.034671
 C    -0.127222    -2.508045     2.199361
 H    -0.212519    -2.365252     1.122308
 H    -2.062318     1.154068     0.000000
 H     2.478988     4.596044     0.000000
 H    -1.438383     2.791446     2.451301
 H     2.463129     1.454176     0.000000
 H    -2.492303     4.236931     0.000000
 H     1.634314     2.985289     2.451769
 H    -0.085384     5.442232     1.524108
 H     1.257976     0.261074     1.927418
 B    -0.796164     2.947120    -1.465254
 B     0.983398     3.078530    -1.461140
 B    -0.008878     4.442386    -0.883429
 C     0.185606     1.682654    -0.988468
 N     0.317808     0.439515    -1.594296
 C    -0.722564    -0.059785    -2.507574
 H    -1.663280    -0.120118    -1.945147
 H    -0.887522     0.636283    -3.344493
 C    -0.346082    -1.418694    -3.056864
 C    -0.221618    -1.613611    -4.438685
 H    -0.385152    -0.775291    -5.117505
 C     0.106326    -2.871319    -4.957707
 H     0.197540    -3.006228    -6.035853
 C     0.320340    -3.949115    -4.095414
 H     0.577189    -4.929817    -4.496759
 C     0.203884    -3.763263    -2.712703
 H     0.369260    -4.601202    -2.034671
 C    -0.127222    -2.508045    -2.199361
 H    -0.212519    -2.365252    -1.122308
 H    -1.438383     2.791446    -2.451301
 H     1.634314     2.985289    -2.451769
 H    -0.085384     5.442232    -1.524108
 H     1.257976     0.261074    -1.927418
