   66
scf done: -1538.597732
 C    -0.000050     4.174737     1.524248
 C     0.000022     4.639166     0.248301
 C     0.000093     4.045517    -2.187674
 H    -0.000072     4.873023     2.337241
 H     0.000048     5.693627     0.055622
 H     0.000123     5.071207    -2.498819
 C    -0.000051     1.896774     0.811158
 C    -0.000095     2.804330     1.822308
 C     0.000048     3.732748    -0.819323
 C     0.000102     3.049615    -3.109482
 C     0.000066     1.692758    -2.747955
 C     0.000027     1.371706    -1.436047
 C     0.000022     2.382815    -0.489096
 C    -0.000030     0.377962     0.838158
 C    -1.240641    -0.135578     1.571210
 C    -2.168786     0.732592     2.117268
 C    -3.320798     0.298617     2.722717
 C    -3.602158    -1.042085     2.783253
 C    -2.705831    -1.920200     2.241267
 C    -1.523578    -1.495462     1.661680
 C    -0.659077    -2.540366     1.162652
 C     0.659179    -2.540327     1.162667
 C     1.523636    -1.495381     1.661675
 C     1.240622    -0.135501     1.571240
 C     0.000012     0.002960    -0.785101
 C    -1.334094    -0.611812    -1.207029
 C    -2.421794     0.233594    -1.029117
 C    -3.711332    -0.120763    -1.308685
 C    -3.972225    -1.370010    -1.816021
 C    -2.922301    -2.212967    -2.024391
 C    -1.604103    -1.867802    -1.736180
 C    -0.658511    -2.914030    -2.046943
 C     0.658353    -2.914023    -2.047069
 C     1.603994    -1.867828    -1.736345
 C     1.334068    -0.611871    -1.207082
 H    -0.000152     2.493470     2.848368
 H     0.000142     3.301921    -4.151043
 H     0.000097     0.935337    -3.505692
 H    -2.020633     1.785851     2.040331
 H    -4.006251     1.018065     3.123437
 H    -4.505412    -1.396676     3.236794
 H    -2.906196    -2.973047     2.270279
 H    -1.157502    -3.430889     0.832065
 H     1.157661    -3.430825     0.832090
 H    -2.253594     1.216190    -0.642940
 H    -4.502926     0.577632    -1.128887
 H    -4.971772    -1.677010    -2.048054
 H    -3.106542    -3.187411    -2.431461
 H    -1.121982    -3.832314    -2.352595
 H     1.121777    -3.832303    -2.352796
 H     2.253731     1.215959    -0.642709
 C     2.705947    -1.920053     2.241186
 C     3.602230    -1.041886     2.783168
 C     3.320744     0.298791     2.722753
 C     2.168677     0.732714     2.117355
 C     2.922185    -2.213070    -2.024544
 C     3.972178    -1.370257    -1.816002
 C     3.711375    -0.121050    -1.308495
 C     2.421858     0.233399    -1.028991
 H     2.906389    -2.972884     2.270167
 H     4.505543    -1.396426     3.236631
 H     4.006132     1.018276     3.123519
 H     2.020420     1.785969     2.040529
 H     3.106344    -3.187486    -2.431724
 H     4.971711    -1.677332    -2.048005
 H     4.503024     0.577231    -1.128510
