   70
scf done: -1615.960024
 H    -6.012204    -0.866038    -1.654510
 C    -4.275497     0.000116     0.853857
 C    -3.433173    -0.000021    -0.240745
 C    -4.055333    -0.000037    -1.477718
 C    -3.253813    -0.000150    -2.575905
 C    -5.680820    -0.000302     0.325326
 C    -5.535149     0.000519    -1.219742
 H    -3.666795    -0.000162    -3.565558
 H    -6.228337    -0.868051     0.664238
 H    -6.229594     0.866253     0.665203
 H    -6.010946     0.868379    -1.653316
 H    -0.403071    -4.505636    -0.976833
 C    -1.453943     0.000254     1.117577
 C    -2.277540     0.000434     2.208774
 C    -3.688229     0.000362     2.081764
 C    -1.841640    -0.000166    -2.442241
 C    -1.256605    -0.000042    -1.216537
 C    -2.077867     0.000004    -0.112247
 C     0.057051     0.000049     0.920828
 C     0.678382     1.236353     1.566221
 C    -0.095843     2.153293     2.253203
 C     0.424172     3.304288     2.788702
 C     1.755708     3.593685     2.632762
 C     2.541072     2.704704     1.953262
 C     2.034947     1.522556     1.443189
 C     2.990396     0.658633     0.788013
 C     2.990041    -0.660080     0.787722
 C     2.034118    -1.523776     1.442506
 C     2.539545    -2.706545     1.951844
 C     1.753659    -3.595456     2.630819
 C     0.422310    -3.305319     2.787033
 C    -0.097023    -2.153686     2.252259
 C     0.677733    -1.236836     1.565737
 C     0.194800     0.000224    -0.767782
 C     0.745576     1.334842    -1.263183
 C    -0.058784     2.422769    -0.949076
 C     0.254300     3.713863    -1.268292
 C     0.255644    -3.713276    -1.268411
 C    -0.057836    -2.422323    -0.949084
 C     0.746057    -1.334092    -1.263391
 H    -1.868116     0.000613     3.200543
 H    -4.273167     0.000496     2.980576
 H    -1.146452     1.994301     2.346505
 H    -0.223790     3.982610     3.306523
 H     2.173818     4.497037     3.028387
 H     3.584349     2.910534     1.816415
 H     3.820164     1.156887     0.325396
 H     3.819525    -1.158579     0.324854
 H     3.582688    -2.912931     1.814820
 H     2.171217    -4.499315     3.025868
 H    -0.226028    -3.983558     3.304495
 H    -1.147524    -1.994074     2.345735
 H    -0.971050     2.252442    -0.418390
 H    -0.404827     4.505947    -0.976895
 H    -0.969977    -2.252310    -0.418070
 H     1.686310    -4.975603    -2.226061
 C     1.412617     3.975928    -1.958071
 C     2.209651     2.925639    -2.302077
 C     1.907228     1.606048    -1.975444
 C     2.889591     0.659348    -2.449066
 C     2.889709    -0.657742    -2.449360
 C     1.907617    -1.604818    -1.975942
 C     2.210394    -2.924288    -2.302805
 C     1.413836    -3.974866    -1.958617
 H    -1.243460    -0.000209    -3.331861
 H     1.684837     4.976773    -2.225374
 H     3.111249     3.111013    -2.851656
 H     3.748348     1.122368    -2.895958
 H     3.748564    -1.120414    -2.896425
 H     3.111912    -3.109304    -2.852637
