  212
scf done: -3350.690876
 C     0.817869    -0.007467     0.008873
 C    -0.817869     0.007467    -0.008873
 C     1.448912     0.313896    -1.369606
 C    -1.448912    -0.313896     1.369606
 C    -1.412742     1.376923    -0.421774
 C     1.412742    -1.376923     0.421774
 C     1.407125     1.033041     0.991495
 C    -1.407125    -1.033041    -0.991495
 C     1.030088     1.080030     2.324159
 C    -1.030088    -1.080030    -2.324159
 C    -1.061648    -1.415652     2.127444
 C     1.061648     1.415652    -2.127444
 C     1.036257    -2.562805    -0.187301
 C    -1.036257     2.562805     0.187301
 C     2.438293     1.865270     0.609872
 C    -2.438293    -1.865270    -0.609872
 C    -2.537764     0.393972     1.819284
 C     2.537764    -0.393972    -1.819284
 C     2.478321    -1.441115     1.296751
 C    -2.478321     1.441115    -1.296751
 C     1.593579     1.957749     3.223373
 C    -1.593579    -1.957749    -3.223373
 C    -1.703267    -1.770458     3.287884
 C     1.703267     1.770458    -3.287884
 C     1.659066    -3.763084     0.080232
 C    -1.659066     3.763084    -0.080232
 C     3.059484     2.734655     1.489022
 C    -3.059484    -2.734655    -1.489022
 C    -3.238090     0.046483     2.966400
 C     3.238090    -0.046483    -2.966400
 C     3.149007    -2.618914     1.571447
 C    -3.149007     2.618914    -1.571447
 C     2.606720     2.788852     2.785205
 C    -2.606720    -2.788852    -2.785205
 C    -2.804632    -1.030420     3.689806
 C     2.804632     1.030420    -3.689806
 C     2.719857    -3.773930     0.963003
 C    -2.719857     3.773930    -0.963003
 H     0.284105     0.407480     2.677829
 H    -0.284105    -0.407480    -2.677829
 H    -0.241716    -2.008639     1.798792
 H     0.241716     2.008639    -1.798792
 H     0.245918    -2.556073    -0.901885
 H    -0.245918     2.556073     0.901885
 H     2.797647     1.829381    -0.394097
 H    -2.797647    -1.829381     0.394097
 H    -2.888862     1.231590     1.259599
 H     2.888862    -1.231590    -1.259599
 H     2.828504    -0.546203     1.761246
 H    -2.828504     0.546203    -1.761246
 C     1.147897     1.937731     4.671449
 C    -1.147897    -1.937731    -4.671449
 C    -1.268453    -2.952843     4.126605
 C     1.268453     2.952843    -4.126605
 C     1.170509    -5.024291    -0.601692
 C    -1.170509     5.024291     0.601692
 C     4.249434     3.539995     1.011967
 C    -4.249434    -3.539995    -1.011967
 C    -4.458630     0.851750     3.352361
 C     4.458630    -0.851750    -3.352361
 C     4.346059    -2.589013     2.497131
 C    -4.346059     2.589013    -2.497131
 H     3.060000     3.469506     3.471883
 H    -3.060000    -3.469506    -3.471883
 H    -3.323861    -1.315088     4.580855
 H     3.323861     1.315088    -4.580855
 H     3.220972    -4.693882     1.169281
 H    -3.220972     4.693882    -1.169281
 C     5.059804    -0.389673    -4.659480
 C    -5.059804     0.389673     4.659480
 C    -4.919512     3.966271    -2.738991
 C     4.919512    -3.966271     2.738991
 C     4.743150     4.510059     2.060529
 C    -4.743150    -4.510059    -2.060529
 C     5.510022    -0.706887    -2.269487
 C    -5.510022     0.706887     2.269487
 C    -5.430536     1.728025    -1.878872
 C     5.430536    -1.728025     1.878872
 C     5.377693     2.580270     0.684244
 C    -5.377693    -2.580270    -0.684244
 C     4.089146    -2.314424    -3.495166
 C    -4.089146     2.314424     3.495166
 C    -3.951581     2.002722    -3.836868
 C     3.951581    -2.002722     3.836868
 C     3.900909     4.332566    -0.231249
 C    -3.900909    -4.332566     0.231249
 C     1.044766     2.511475    -5.560302
 C    -1.044766    -2.511475     5.560302
 C    -2.002392     6.233464     0.240999
 C     2.002392    -6.233464    -0.240999
 C     1.663819     3.131195     5.444071
 C    -1.663819    -3.131195    -5.444071
 C    -0.015322     3.566777    -3.622030
 C     0.015322    -3.566777     3.622030
 C     0.262187     5.292145     0.189383
 C    -0.262187    -5.292145    -0.189383
 C    -0.363719     1.938893     4.771814
 C     0.363719    -1.938893    -4.771814
 C     2.350195     4.014842    -4.101760
 C    -2.350195    -4.014842     4.101760
 C    -1.218913     4.851143     2.105903
 C     1.218913    -4.851143    -2.105903
 C     1.682267     0.679192     5.324999
 C    -1.682267    -0.679192    -5.324999
 H     0.717503     3.350993    -6.158946
 H    -0.717503    -3.350993     6.158946
 H    -1.614553     7.101926     0.754716
 H     1.614553    -7.101926    -0.754716
 H     1.271925     3.104642     6.451155
 H    -1.271925    -3.104642    -6.451155
 H     1.944853     2.121797    -6.012177
 H    -1.944853    -2.121797     6.012177
 H    -3.035790     6.114168     0.535959
 H     3.035790    -6.114168    -0.535959
 H     2.741773     3.133091     5.520791
 H    -2.741773    -3.133091    -5.520791
 H     0.286846     1.743801    -5.617346
 H    -0.286846    -1.743801     5.617346
 H    -1.971598     6.443014    -0.819110
 H     1.971598    -6.443014     0.819110
 H     1.352082     4.063081     4.992591
 H    -1.352082    -4.063081    -4.992591
 H     2.064788     4.855115    -4.720930
 H    -2.064788    -4.855115     4.720930
 H    -0.874935     5.753268     2.594638
 H     0.874935    -5.753268    -2.594638
 H     1.355403     0.619434     6.355081
 H    -1.355403    -0.619434    -6.355081
 H     2.510820     4.378884    -3.097200
 H    -2.510820    -4.378884     3.097200
 H    -0.585223     4.040055     2.430550
 H     0.585223    -4.040055    -2.430550
 H     1.334391    -0.204356     4.809611
 H    -1.334391     0.204356    -4.809611
 H     3.291638     3.635646    -4.472811
 H    -3.291638    -3.635646     4.472811
 H    -2.225511     4.649831     2.443571
 H     2.225511    -4.649831    -2.443571
 H     2.763071     0.666830     5.314894
 H    -2.763071    -0.666830    -5.314894
 H    -0.304403     4.384451    -4.268219
 H     0.304403    -4.384451     4.268219
 H     0.639687     6.170955     0.696500
 H    -0.639687    -6.170955    -0.696500
 H    -0.659958     1.918991     5.812454
 H     0.659958    -1.918991    -5.812454
 H    -0.824364     2.850504    -3.608790
 H     0.824364    -2.850504     3.608790
 H     0.334684     5.465562    -0.875220
 H    -0.334684    -5.465562     0.875220
 H    -0.782330     2.828138     4.323818
 H     0.782330    -2.828138    -4.323818
 H     0.089597     3.961493    -2.622702
 H    -0.089597    -3.961493     2.622702
 H     0.904091     4.460858     0.439520
 H    -0.904091    -4.460858    -0.439520
 H    -0.811931     1.082680     4.291296
 H     0.811931    -1.082680    -4.291296
 H     5.918222    -1.001754    -4.898107
 H    -5.918222     1.001754     4.898107
 H    -5.760069     3.892665    -3.414709
 H     5.760069    -3.892665     3.414709
 H     5.575460     5.075299     1.665213
 H    -5.575460    -5.075299    -1.665213
 H     4.357101    -0.477724    -5.476492
 H    -4.357101     0.477724     5.476492
 H    -4.193902     4.629028    -3.189799
 H     4.193902    -4.629028     3.189799
 H     3.974571     5.214403     2.347440
 H    -3.974571    -5.214403    -2.347440
 H     5.397514     0.635967    -4.607734
 H    -5.397514    -0.635967     4.607734
 H    -5.276652     4.421240    -1.825766
 H     5.276652    -4.421240     1.825766
 H     5.090350     4.002507     2.949472
 H    -5.090350    -4.002507    -2.949472
 H     6.388288    -1.288274    -2.517855
 H    -6.388288     1.288274     2.517855
 H    -6.291680     1.681334    -2.532545
 H     6.291680    -1.681334     2.532545
 H     6.248059     3.124720     0.341936
 H    -6.248059    -3.124720    -0.341936
 H     5.811118     0.325723    -2.160969
 H    -5.811118    -0.325723     2.160969
 H    -5.751765     2.136125    -0.930839
 H     5.751765    -2.136125     0.930839
 H     5.661118     2.007239     1.556065
 H    -5.661118    -2.007239    -1.556065
 H     5.144572    -1.048925    -1.312433
 H    -5.144572     1.048925     1.312433
 H    -5.088400     0.717838    -1.707485
 H     5.088400    -0.717838     1.707485
 H     5.092405     1.885277    -0.092103
 H    -5.092405    -1.885277     0.092103
 H     4.961501    -2.893333    -3.768375
 H    -4.961501     2.893333     3.768375
 H    -4.808532     1.969864    -4.496693
 H     4.808532    -1.969864     4.496693
 H     4.772476     4.867822    -0.583922
 H    -4.772476    -4.867822     0.583922
 H     3.699305    -2.720945    -2.574114
 H    -3.699305     2.720945     2.574114
 H    -3.574062     0.996836    -3.737648
 H     3.574062    -0.996836     3.737648
 H     3.561827     3.695441    -1.034002
 H    -3.561827    -3.695441     1.034002
 H     3.340378    -2.450415    -4.262433
 H    -3.340378     2.450415     4.262433
 H    -3.186708     2.600805    -4.311907
 H     3.186708    -2.600805     4.311907
 H     3.125037     5.055927    -0.027282
 H    -3.125037    -5.055927     0.027282
