   66
scf done: -2157.868188
Cl     2.835351     2.523794     0.568151
Cl     0.727014    -3.173631    -0.655368
 C     0.441389    -0.526319    -0.339340
 C    -0.989225    -0.220641     0.023578
 C    -0.488597     1.362703     0.056150
 C     0.900300     0.759972    -0.052221
 C     2.218404     1.016344     0.045225
 C     3.140706    -0.016445    -0.265121
 C     4.525904     0.204204    -0.261218
 C     5.395282    -0.787286    -0.559346
 C     4.925636    -2.061811    -0.871843
 C     3.597196    -2.311229    -0.877305
 C     2.667996    -1.304024    -0.581004
 C     1.275012    -1.558259    -0.555102
 C    -1.256469    -0.960103     1.351306
 C    -0.211531    -1.385832     2.156286
 C    -0.424802    -2.098414     3.309111
 C    -1.699735    -2.422225     3.702594
 C    -2.749195    -2.027596     2.914793
 C    -2.527657    -1.320697     1.755781
 C    -2.084001    -0.597024    -0.943035
 C    -1.886646    -1.544276    -1.924104
 C    -2.896128    -1.906113    -2.782914
 C    -4.136658    -1.326495    -2.682623
 C    -4.352814    -0.383669    -1.707844
 C    -3.339316    -0.029993    -0.850032
 C    -0.832416     2.190946     1.345097
 C    -2.316983     2.140750     1.656111
 C    -0.452321     3.667066     1.307828
 C    -0.112578     1.672596     2.582539
 C    -0.713318     2.139857    -1.320531
 C    -0.640032     1.270397    -2.574003
 C    -2.029254     2.889397    -1.447420
 C     0.418452     3.138770    -1.548174
 H     4.893556     1.179043    -0.023306
 H     6.448084    -0.591077    -0.555594
 H     5.617157    -2.844569    -1.108274
 H     3.238142    -3.289572    -1.115413
 H     0.798134    -1.143193     1.901680
 H     0.416886    -2.401135     3.898718
 H    -1.869321    -2.981781     4.600143
 H    -3.754305    -2.280016     3.186884
 H    -3.376444    -1.073585     1.157399
 H    -0.924550    -1.987804    -2.050276
 H    -2.703993    -2.639896    -3.539600
 H    -4.923390    -1.603952    -3.354518
 H    -5.312833     0.082598    -1.611090
 H    -3.535001     0.705141    -0.097910
 H    -2.657408     1.132882     1.824675
 H    -2.923185     2.594846     0.889438
 H    -2.497717     2.687502     2.571644
 H    -0.898266     4.228461     0.507845
 H    -0.801095     4.110081     2.230174
 H     0.615067     3.810484     1.277951
 H    -0.225029     2.400605     3.373890
 H     0.946546     1.544784     2.416795
 H    -0.515861     0.748389     2.948834
 H     0.151900     0.537570    -2.540255
 H    -1.563324     0.770314    -2.799430
 H    -0.425545     1.924115    -3.408200
 H    -2.880001     2.234779    -1.378843
 H    -2.059881     3.334675    -2.432698
 H    -2.153507     3.689577    -0.739514
 H     0.145534     3.771695    -2.381196
 H     0.641641     3.779430    -0.719607
 H     1.328208     2.629526    -1.826976
