   72
scf done: -1218.550324
 N     1.494028     0.473566     0.268619
 N    -1.470814     0.463907     0.190773
 C     4.145145    -3.000372     0.399666
 H     3.958813    -4.005517     0.726713
 C     3.087393    -2.228868    -0.023820
 C    -3.334961    -0.891890    -0.519846
 C     3.315518    -0.928415    -0.444343
 C     0.871857     1.700482     0.211198
 C     2.166918    -0.078535    -0.882932
 H     2.518269     0.709056    -1.532331
 H     1.465268    -0.667985    -1.455209
 C     5.430978    -2.512061     0.417786
 B    -1.403055     3.035888    -0.659545
 C    -0.859251     1.697298     0.187951
 B     0.032083     2.140187    -1.170565
 C    -5.579196    -1.160703     0.242599
 H    -6.524608    -0.725672     0.505193
 C     4.601952    -0.413024    -0.414468
 C    -3.156406    -2.262063    -0.439077
 C     5.637583    -1.214060     0.012854
 H     6.631567    -0.810029     0.034277
 C    -2.214456    -0.004592    -0.956161
 H    -1.551573    -0.536889    -1.620611
 H    -2.611446     0.829648    -1.514610
 B     1.445868     3.039874    -0.619714
 B    -0.019473     2.088352     1.590263
 C    -4.559355    -0.337210    -0.174587
 B     0.029458     3.900983    -1.178050
 C    -4.199988    -3.057284    -0.018998
 H    -4.054033    -4.118923     0.039223
 C    -5.418627    -2.525147     0.327980
 B    -1.432139     3.001408     1.083154
 B     1.416153     2.994882     1.123373
 C     6.568870    -3.369742     0.846535
 H     6.978028    -3.911733     0.004663
 H     6.258290    -4.096667     1.581458
 H     7.366393    -2.780881     1.273153
 C     1.710713    -2.795470    -0.020049
 H     1.680203    -3.729687     0.518375
 H     1.363368    -2.987805    -1.026755
 H     1.011702    -2.114597     0.442009
 B    -0.868173     4.438220     0.251289
 C    -1.858793    -2.892143    -0.808839
 H    -1.830100    -3.923340    -0.493443
 H    -1.029065    -2.379150    -0.349612
 H    -1.703289    -2.874468    -1.879574
 B     0.882695     4.437689     0.278602
 C    -4.796621     1.130954    -0.266594
 H    -5.749295     1.391016     0.166844
 H    -4.805289     1.464236    -1.295709
 H    -4.035118     1.699587     0.246343
 B    -0.015799     3.838862     1.682942
 C    -6.527774    -3.392900     0.808819
 H    -6.572776    -3.394780     1.889458
 H    -6.396961    -4.413928     0.485208
 H    -7.483205    -3.045810     0.445199
 C     4.890373     0.990224    -0.825885
 H     5.926072     1.232266    -0.647680
 H     4.288229     1.700949    -0.278248
 H     4.696345     1.146861    -1.878143
 H     0.040759     1.400517    -2.080128
 H    -2.436164     2.819694     1.668034
 H    -0.029248     1.287324     2.447882
 H     1.524748     5.423637     0.308843
 H    -2.384701     2.921163    -1.293221
 H     2.402508     2.807723     1.736558
 H    -1.510692     5.424325     0.256289
 H     0.041289     4.492828    -2.195032
 H     2.447341     2.913066    -1.219971
 H    -0.028809     4.380717     2.727476
 H     2.006319     0.355087     1.113178
 H    -1.900949     0.247254     1.060684
