   54
scf done:  -982.808837
 B    -1.227575     1.905597    -0.000000
 B    -0.794141     2.849517     1.425594
 B     0.943894     3.014989     1.423403
 B     1.532367     2.175336    -0.000000
 B    -1.430247     3.645430    -0.000000
 B    -0.057608     4.347897     0.876725
 B     1.418053     3.926159    -0.000000
 C     0.194972     1.623263     0.855742
 N     0.349198     0.387686     1.461218
 C    -0.575059     0.016481     2.495797
 H    -1.573247     0.046360     2.082683
 H    -0.556761     0.711023     3.327615
 C    -0.276366    -1.356134     2.999100
 C    -0.374128    -1.635208     4.343890
 H    -0.638241    -0.853895     5.029743
 C    -0.134520    -2.904152     4.815388
 H    -0.214484    -3.106308     5.864412
 C     0.215886    -3.906978     3.944513
 H     0.408167    -4.895257     4.310398
 C     0.323201    -3.633975     2.600966
 H     0.598079    -4.411465     1.916808
 C     0.077531    -2.367035     2.131864
 H     0.161768    -2.145920     1.087771
 H    -2.035572     1.056323    -0.000000
 H     2.392613     4.585332    -0.000000
 H    -1.388180     2.653455     2.418328
 H     2.474751     1.473059    -0.000000
 H    -2.507412     4.118484    -0.000000
 H     1.559137     2.892268     2.417985
 H    -0.157523     5.329454     1.518036
 H     1.293382     0.238994     1.744475
 B    -0.794141     2.849517    -1.425594
 B     0.943894     3.014989    -1.423403
 B    -0.057608     4.347897    -0.876725
 C     0.194972     1.623263    -0.855742
 N     0.349198     0.387686    -1.461218
 C    -0.575059     0.016481    -2.495797
 H    -1.573247     0.046360    -2.082683
 H    -0.556761     0.711023    -3.327615
 C    -0.276366    -1.356134    -2.999100
 C    -0.374128    -1.635208    -4.343890
 H    -0.638241    -0.853895    -5.029743
 C    -0.134520    -2.904152    -4.815388
 H    -0.214484    -3.106308    -5.864412
 C     0.215886    -3.906978    -3.944513
 H     0.408167    -4.895257    -4.310398
 C     0.323201    -3.633975    -2.600966
 H     0.598079    -4.411465    -1.916808
 C     0.077531    -2.367035    -2.131864
 H     0.161768    -2.145920    -1.087771
 H    -1.388180     2.653455    -2.418328
 H     1.559137     2.892268    -2.417985
 H    -0.157523     5.329454    -1.518036
 H     1.293382     0.238994    -1.744475
