   50
scf done:  -980.351700
 B     5.735113     3.464714     3.615746
 B     4.218156     4.343022     3.638987
 B     3.615613     4.342994     5.283572
 B     5.739623     5.215120     3.603476
 B     4.419244     5.765860     4.645371
 C     4.477526     3.034315     4.666723
 C     2.765151     1.669443     4.039598
 H     2.157516     2.534930     3.817359
 N     3.936216     1.771188     4.468296
 C     2.144869     0.375316     3.812235
 C     0.852150     0.323575     3.338758
 H     0.320033     1.234356     3.143996
 C     0.244301    -0.888612     3.115958
 H    -0.760607    -0.925349     2.747884
 C     0.931542    -2.050629     3.367512
 H     0.460696    -2.997347     3.194947
 C     2.225441    -2.003804     3.841421
 H     2.756414    -2.913439     4.035768
 C     2.831853    -0.796623     4.063688
 H     3.835477    -0.733859     4.431279
 H     2.472926     4.168425     5.496316
 H     6.031729     2.674064     2.806438
 H     3.483334     4.168273     2.738456
 H     6.093078     5.788941     2.639112
 H     3.816045     6.751870     4.424428
 B     4.758398     3.464718     6.281438
 B     6.275355     4.343026     6.258195
 B     6.877898     4.342994     4.613610
 B     4.753887     5.215124     6.293703
 B     6.074266     5.765861     5.251807
 C     6.015985     3.034316     5.230463
 C     7.728359     1.669446     5.857593
 H     8.335994     2.534935     6.079829
 N     6.557295     1.771190     5.428894
 C     8.348643     0.375321     6.084958
 C     9.641363     0.323582     6.558433
 H    10.173478     1.234364     6.753195
 C    10.249213    -0.888604     6.781235
 H    11.254121    -0.925339     7.149309
 C     9.561973    -2.050622     6.529683
 H    10.032820    -2.997339     6.702249
 C     8.268074    -2.003799     6.055774
 H     7.737102    -2.913436     5.861429
 C     7.661661    -0.796619     5.833506
 H     6.658036    -0.733857     5.465915
 H     8.020584     4.168423     4.400867
 H     4.461782     2.674071     7.090749
 H     7.010176     4.168280     7.158727
 H     4.400432     5.788948     7.258066
 H     6.677465     6.751872     5.472747
