   68
scf done: -1614.288836
 C     1.546194    -0.000736     1.098747
 C     2.421220    -0.000693     2.182942
 C     3.841163    -0.000946     2.011213
 C     4.405492    -0.001460     0.742255
 C     3.498287    -0.001728    -0.327363
 C     4.124249    -0.001569    -1.583392
 C     3.281686    -0.001051    -2.687739
 C     1.859972    -0.000736    -2.525776
 C     1.284689    -0.000770    -1.266832
 C     2.139863    -0.001226    -0.164527
 C     5.726006    -0.001415     0.094133
 C     5.560569    -0.001470    -1.265348
 C     0.019950    -0.000251     0.955742
 C    -0.582928     1.259875     1.588043
 C     0.231085     2.211753     2.214415
 C    -0.258643     3.426767     2.676021
 C    -1.600189     3.745774     2.500164
 C    -2.428945     2.816357     1.896727
 C    -1.958829     1.564202     1.469488
 C    -2.955119     0.672250     0.910737
 C    -2.955554    -0.670989     0.910835
 C    -1.959766    -1.563544     1.469484
 C    -2.430574    -2.815450     1.896770
 C    -1.602283    -3.745412     2.499938
 C    -0.260444    -3.427314     2.675420
 C     0.229909    -2.212574     2.213857
 C    -0.583712    -1.260051     1.587836
 C    -0.170134     0.000023    -0.796186
 C    -0.743417     1.347310    -1.254361
 C     0.080233     2.447627    -0.960445
 C    -0.281956     3.762613    -1.202647
 C    -1.508024     4.034146    -1.798901
 C    -2.320440     2.970826    -2.140812
 C    -1.974009     1.626202    -1.888005
 C    -2.969489     0.672367    -2.333736
 C    -2.970301    -0.668784    -2.333828
 C    -1.975880    -1.623860    -1.888415
 C    -2.323668    -2.968003    -2.141751
 C    -1.512377    -4.032318    -1.800129
 C    -0.286169    -3.762338    -1.203535
 C     0.077415    -2.447792    -0.960901
 C    -0.745005    -1.346534    -1.254588
 H     2.034708    -0.000426     3.199118
 H     4.458634    -0.000663     2.906633
 H     3.678296    -0.000810    -3.700501
 H     1.234779    -0.000321    -3.414357
 H     6.680434    -0.001314     0.608022
 H     1.293736     2.028681     2.303536
 H     0.421626     4.133816     3.142840
 H    -1.994159     4.703807     2.827210
 H    -3.483291     3.041011     1.755822
 H    -3.843507     1.164549     0.520657
 H    -3.844274    -1.162800     0.520859
 H    -3.485106    -3.039417     1.756121
 H    -1.996802    -4.703167     2.827144
 H     0.419457    -4.134900     3.141959
 H     1.292701    -2.030147     2.302611
 H     1.042044     2.270626    -0.494567
 H     0.392489     4.565059    -0.919190
 H    -1.821098     5.054535    -2.000504
 H    -3.274063     3.162980    -2.626647
 H    -3.857170     1.139872    -2.756652
 H    -3.858574    -1.135171    -2.756742
 H    -3.277390    -3.159052    -2.627810
 H    -1.826560    -5.052290    -2.002122
 H     0.387389    -4.565606    -0.920293
 H     1.039385    -2.271915    -0.494877
 H     6.365552    -0.001437    -1.991576
