   66
scf done: -1538.183579
 C    -0.000734     4.232611     1.544559
 C    -0.000450     4.701202     0.247331
 C     0.000110     4.100972    -2.213097
 H    -0.000950     4.942368     2.367530
 H    -0.000456     5.770086     0.049119
 H     0.000136     5.141987    -2.526071
 C    -0.000354     1.925255     0.820704
 C    -0.000702     2.849102     1.846548
 C    -0.000141     3.785960    -0.831706
 C     0.000367     3.091290    -3.153162
 C     0.000354     1.722520    -2.789474
 C     0.000130     1.393347    -1.456773
 C    -0.000090     2.411821    -0.495778
 C    -0.000175     0.395602     0.861113
 C    -1.261305    -0.122565     1.573565
 C    -2.219713     0.761976     2.084394
 C    -3.429501     0.332646     2.614605
 C    -3.739550    -1.022120     2.628064
 C    -2.807537    -1.918523     2.136084
 C    -1.560850    -1.502977     1.641082
 C    -0.671205    -2.561705     1.206196
 C     0.671450    -2.561557     1.206138
 C     1.560829    -1.502673     1.641177
 C     1.260879    -0.122321     1.573957
 C     0.000118     0.007299    -0.813471
 C    -1.346160    -0.617825    -1.212723
 C    -2.447388     0.235515    -1.028702
 C    -3.761645    -0.152562    -1.230399
 C    -4.031785    -1.443101    -1.671316
 C    -2.967707    -2.291560    -1.904779
 C    -1.623563    -1.917048    -1.690754
 C    -0.670064    -2.961515    -2.006446
 C     0.670837    -2.961272    -2.006771
 C     1.624140    -1.916647    -1.690983
 C     1.346523    -0.617652    -1.212448
 H    -0.001054     2.530815     2.885653
 H     0.000573     3.349901    -4.208753
 H     0.000536     0.951920    -3.555010
 H    -2.047855     1.828147     2.024107
 H    -4.139920     1.066693     2.984991
 H    -4.692751    -1.374115     3.012202
 H    -3.026313    -2.983526     2.138677
 H    -1.165057    -3.489507     0.925149
 H     1.165475    -3.489249     0.924973
 H    -2.269590     1.247544    -0.685789
 H    -4.564669     0.552237    -1.036357
 H    -5.051530    -1.778478    -1.837269
 H    -3.158679    -3.297887    -2.269652
 H    -1.137309    -3.895664    -2.313861
 H     1.138285    -3.895250    -2.314383
 H     2.269782     1.247461    -0.684299
 C     2.807646    -1.917960     2.136047
 C     3.739305    -1.021357     2.628370
 C     3.428686     0.333285     2.615545
 C     2.218808     0.762384     2.085323
 C     2.968365    -2.290990    -1.904874
 C     4.032339    -1.442619    -1.670701
 C     3.762023    -0.152326    -1.229146
 C     2.447708     0.235618    -1.027675
 H     3.026803    -2.982886     2.138275
 H     4.692675    -1.373114     3.012304
 H     4.138752     1.067469     2.986341
 H     2.046576     1.828520     2.025478
 H     3.159456    -3.297137    -2.270195
 H     5.052144    -1.777880    -1.836528
 H     4.564968     0.552362    -1.034396
