   70
scf done: -1615.515493
 H    -6.065224    -0.876639    -1.765189
 C    -4.345000     0.000054     0.801521
 C    -3.476128     0.000047    -0.293386
 C    -4.086589     0.000303    -1.553485
 C    -3.256764     0.000319    -2.658865
 C    -5.756497    -0.000067     0.246757
 C    -5.585258     0.000886    -1.316371
 H    -3.663542     0.000507    -3.667279
 H    -6.320096    -0.878694     0.581809
 H    -6.321006     0.877524     0.582930
 H    -6.063977     0.879799    -1.763830
 H    -0.351107    -4.565988    -0.902102
 C    -1.493489    -0.000134     1.113972
 C    -2.347376    -0.000063     2.209688
 C    -3.769240     0.000008     2.058469
 C    -1.834614     0.000103    -2.503735
 C    -1.256776    -0.000068    -1.249806
 C    -2.100460    -0.000092    -0.142311
 C     0.032231    -0.000016     0.956344
 C     0.643600     1.258744     1.584670
 C    -0.162231     2.209762     2.222885
 C     0.333428     3.422905     2.683057
 C     1.673243     3.741676     2.493795
 C     2.494411     2.813400     1.878453
 C     2.018424     1.562931     1.452745
 C     3.008175     0.671949     0.880763
 C     3.008380    -0.671187     0.881155
 C     2.018877    -1.562135     1.453638
 C     2.495266    -2.812132     1.880290
 C     1.674324    -3.740326     2.496050
 C     0.334328    -3.421970     2.684780
 C    -0.161692    -2.209300     2.223764
 C     0.643931    -1.258343     1.585196
 C     0.204276    -0.000258    -0.793540
 C     0.776099     1.346004    -1.257036
 C    -0.041621     2.447672    -0.951944
 C     0.319822     3.762338    -1.196164
 C     0.318185    -3.762911    -1.196105
 C    -0.042525    -2.448116    -0.951548
 C     0.775586    -1.346791    -1.256871
 H    -1.944058    -0.000003     3.219678
 H    -4.378939     0.000031     2.958835
 H    -1.223952     2.026652     2.321639
 H    -0.341135     4.129035     3.159644
 H     2.071562     4.698396     2.819577
 H     3.547320     3.037622     1.726255
 H     3.891380     1.164627     0.479436
 H     3.891759    -1.163822     0.480151
 H     3.548299    -3.036031     1.728476
 H     2.072920    -4.696694     2.822526
 H    -0.340058    -4.128087     3.161635
 H    -1.223491    -2.026485     2.322232
 H    -0.997744     2.269865    -0.474942
 H    -0.349180     4.565684    -0.902236
 H    -0.998398    -2.269893    -0.474204
 H     1.848166    -5.054425    -2.012857
 C     1.538591     4.033009    -1.807924
 C     2.344501     2.968798    -2.161654
 C     1.999049     1.624371    -1.905410
 C     2.987758     0.669694    -2.364334
 C     2.987392    -0.671437    -2.364482
 C     1.998251    -1.625676    -1.905565
 C     2.342951    -2.970241    -2.162141
 C     1.536588    -4.034095    -1.808387
 H    -1.211601     0.000104    -3.394342
 H     1.850795     5.053202    -2.012114
 H     3.292081     3.159804    -2.659732
 H     3.870562     1.136411    -2.798368
 H     3.869910    -1.138557    -2.798666
 H     3.290300    -3.161640    -2.660506
