   62
scf done: -6531.824094
Br     1.748720     3.273747    -0.538679
Br     1.748073    -3.273912     0.539051
 C    -0.849235     0.813777    -0.243176
 C    -0.849366    -0.813607     0.243086
 C     0.659788    -0.682353     0.161613
 C     1.813738    -1.403668     0.254763
 C     3.058391    -0.712841     0.114762
 C     4.303535    -1.377222     0.215018
 C     5.490801    -0.695887     0.107425
 C     5.490920     0.695003    -0.107462
 C     4.303766     1.376537    -0.215024
 C     3.058514     0.712378    -0.114743
 C     1.813987     1.403447    -0.254631
 C     0.659899     0.682366    -0.161379
 C    -1.398664     0.972091    -1.642207
 C    -2.723349     0.605935    -1.912136
 C    -3.246952     0.702474    -3.194302
 C    -2.452115     1.166993    -4.240294
 C    -1.135716     1.533444    -3.986191
 C    -0.614217     1.435205    -2.697697
 C    -1.405884     1.817575     0.752778
 C    -0.779867     1.968316     1.997461
 C    -1.274380     2.849900     2.948267
 C    -2.404133     3.616615     2.672461
 C    -3.019079     3.498170     1.431632
 C    -2.522056     2.611389     0.479340
 C    -1.406004    -1.817351    -0.752914
 C    -0.779916    -1.968272    -1.997546
 C    -1.274546    -2.849809    -2.948336
 C    -2.404457    -3.616293    -2.672567
 C    -3.019483    -3.497659    -1.431798
 C    -2.522355    -2.610926    -0.479521
 C    -1.398976    -0.971880     1.642042
 C    -0.614684    -1.435221     2.697551
 C    -1.136303    -1.533446     3.985996
 C    -2.452662    -1.166760     4.240018
 C    -3.247346    -0.702053     3.193997
 C    -2.723622    -0.605538     1.911870
 H     4.303550    -2.448291     0.385453
 H     6.431015    -1.233177     0.190464
 H     6.431222     1.232134    -0.190471
 H     4.303971     2.447602    -0.385507
 H    -3.343212     0.210129    -1.113097
 H    -4.273458     0.398837    -3.379455
 H    -2.856670     1.236136    -5.246245
 H    -0.503353     1.894714    -4.792597
 H     0.418438     1.714319    -2.519575
 H     0.099105     1.375815     2.230887
 H    -0.773613     2.937615     3.908346
 H    -2.793289     4.307779     3.415071
 H    -3.888900     4.104341     1.192684
 H    -3.005864     2.550180    -0.489039
 H     0.099173    -1.375947    -2.230946
 H    -0.773749    -2.937662    -3.908389
 H    -2.793690    -4.307403    -3.415183
 H    -3.889421    -4.103670    -1.192884
 H    -3.006227    -2.549504     0.488812
 H     0.417937    -1.714515     2.519459
 H    -0.504090    -1.894931     4.792420
 H    -2.857291    -1.235867     5.245946
 H    -4.273812    -0.398240     3.379088
 H    -3.343364    -0.209608     1.112801
