   58
scf done: -1977.788921
 I    -1.862201     3.432724    -0.204839
 I    -1.493043    -3.604743     0.202905
 C     0.776298     0.880561     0.052595
 C     0.863484    -0.794782    -0.059825
 C    -0.638315    -0.734585     0.035739
 C    -1.747094    -1.521530     0.088327
 C    -3.026609    -0.880032     0.043890
 C    -4.237077    -1.610355     0.094039
 C    -5.459564    -0.986266     0.042894
 C    -5.532448     0.414592    -0.062046
 C    -4.381528     1.162631    -0.113033
 C    -3.101491     0.562206    -0.063116
 C    -1.895555     1.333314    -0.105666
 C    -0.710734     0.666198    -0.056043
 C     1.238957     1.414297     1.387398
 C     0.661965     1.275681     2.638695
 C     1.301393     1.847242     3.741059
 C     2.494378     2.551050     3.581054
 C     3.049258     2.733515     2.314705
 C     2.405005     2.176930     1.215664
 C     2.642414     2.330780    -0.221170
 C     3.601937     3.069918    -0.902897
 C     3.505834     3.177380    -2.289285
 C     2.452858     2.574037    -2.975004
 C     1.497440     1.818145    -2.292949
 C     1.611009     1.672660    -0.918845
 C     1.764928    -1.497038     0.921248
 C     1.653544    -1.651632     2.294680
 C     2.673979    -2.305923     2.987420
 C     3.789006    -2.800664     2.312935
 C     3.886845    -2.685951     0.927288
 C     2.864091    -2.048517     0.234912
 C     2.627309    -1.919442    -1.204360
 C     3.336202    -2.408429    -2.295792
 C     2.779740    -2.282216    -3.568263
 C     1.524164    -1.701112    -3.741935
 C     0.818555    -1.196767    -2.647145
 C     1.392263    -1.278126    -1.389362
 H    -4.181676    -2.691560     0.174280
 H    -6.369736    -1.577358     0.083753
 H    -6.499072     0.908003    -0.102942
 H    -4.439537     2.243782    -0.192729
 H    -0.280157     0.746657     2.759454
 H     0.860769     1.749024     4.729085
 H     2.981951     2.986283     4.448959
 H     3.953197     3.323945     2.190451
 H     4.399503     3.575066    -0.364545
 H     4.244422     3.755847    -2.837350
 H     2.370101     2.694651    -4.051320
 H     0.674349     1.369031    -2.835689
 H     0.784422    -1.287364     2.829167
 H     2.593623    -2.432501     4.063223
 H     4.577132    -3.300720     2.869119
 H     4.736514    -3.108676     0.397689
 H     4.293286    -2.905383    -2.161112
 H     3.317879    -2.666143    -4.430478
 H     1.086947    -1.646979    -4.734864
 H    -0.170646    -0.765213    -2.778498
