   54
scf done: -1306.156416
 C     0.000024     0.640562     0.846716
 C    -0.000062     0.640575    -0.846624
 C     0.000164    -1.909362     0.675616
 C     0.000073    -1.909409    -0.676065
 C    -1.225671    -0.024002     1.434559
 C    -2.314023     0.639201     1.982215
 H    -2.325775     1.725412     2.013457
 C    -3.394003    -0.094989     2.476978
 H    -4.244589     0.425125     2.908803
 C    -3.389202    -1.483995     2.413679
 H    -4.235384    -2.047915     2.796324
 C    -2.303370    -2.159741     1.852578
 H    -2.300561    -3.243771     1.782984
 C    -1.228227    -1.433055     1.368518
 C     1.225877    -0.023870     1.434389
 C     2.314132     0.639464     1.982066
 H     2.325763     1.725679     2.013292
 C     3.394194    -0.094597     2.476851
 H     4.244686     0.425620     2.908736
 C     3.389563    -1.483602     2.413544
 H     4.235805    -2.047422     2.796204
 C     2.303820    -2.159479     1.852422
 H     2.301160    -3.243507     1.782788
 C     1.228594    -1.432925     1.368357
 C    -1.225869    -0.023874    -1.434332
 C    -2.314322     0.639499    -1.981621
 H    -2.326063     1.725717    -2.012572
 C    -3.394364    -0.094537    -2.476448
 H    -4.245054     0.425696    -2.907928
 C    -3.389537    -1.483571    -2.413616
 H    -4.235727    -2.047367    -2.796424
 C    -2.303627    -2.159485    -1.852883
 H    -2.300811    -3.243536    -1.783594
 C    -1.228456    -1.432943    -1.368680
 C     1.225732    -0.023769    -1.434488
 C     2.314068     0.639718    -1.981872
 H     2.325672     1.725938    -2.012848
 C     3.394176    -0.094197    -2.476738
 H     4.244775     0.426122    -2.908283
 C     3.389515    -1.483230    -2.413864
 H     4.235772    -2.046942    -2.796656
 C     2.303720    -2.159258    -1.853051
 H     2.301025    -3.243312    -1.783802
 C     1.228482    -1.432843    -1.368802
 C    -0.000007     2.142096     0.694617
 C    -0.000040     3.314012     1.434467
 H     0.000053     3.324655     2.521102
 C    -0.000249     4.505703     0.699297
 H    -0.000285     5.456796     1.225111
 C    -0.000420     4.505710    -0.699155
 H    -0.000573     5.456809    -1.224957
 C    -0.000408     3.314010    -1.434318
 H    -0.000547     3.324606    -2.520950
 C    -0.000170     2.142117    -0.694443
