   74
scf done: -1243.411286
 C    -0.615790    -0.028978    -0.122983
 C    -0.957262    -1.531736    -0.413451
 C     1.025764     0.185058     0.176497
 C    -2.380429    -1.729987    -0.965353
 C     1.194393     1.311528     1.222043
 C    -1.685106     0.379860     0.996816
 C     1.816380     0.594470    -1.116569
 C    -1.738592     1.880880     1.346626
 C    -2.433416     0.578190    -1.861614
 C     2.734163    -1.715755    -1.554564
 C    -1.012059     0.866672    -1.346512
 C    -3.137910     0.122303     0.442764
 C    -1.551331    -0.504676     2.244078
 C     3.254710     1.059597    -0.780048
 C     3.335716    -0.576762     1.061002
 C    -0.951751     2.369950    -1.025112
 C    -3.390870    -1.342695     0.116719
 C     1.885659    -1.027907     0.717650
 C    -3.443356     0.978700    -0.784652
 C     4.056401    -0.116072    -0.213457
 C     2.628183     1.731447     1.518533
 C     1.926590    -0.551709    -2.133646
 C     4.148336    -1.239215    -1.237930
 C     2.081493    -2.203384    -0.259219
 C    -1.824895    -1.977829     1.914627
 C     3.375680     0.539148     2.092990
 C    -1.944636     2.734096     0.085164
 C     3.267943     2.209148     0.219622
 C    -2.595374    -0.892159    -2.217070
 C    -3.347526     2.461560    -0.451234
 C    -0.860407    -2.439766     0.826644
 C    -3.242855    -2.167565     1.387830
 H    -0.343543     0.655726    -2.185623
 H     2.769251    -2.538436    -2.280646
 H     2.603409     2.552088     2.248196
 H     2.900289     0.214717     3.029283
 H    -1.866857    -1.176725    -2.989889
 H     0.142646    -2.497683     1.237126
 H    -4.459998     0.740916    -1.132012
 H    -2.591329     1.195558    -2.758501
 H     0.937404    -0.898801    -2.450764
 H    -1.226811     2.923342    -1.934798
 H     4.650360    -0.880083    -2.147351
 H     4.747910    -2.070103    -0.840755
 H    -3.817678     0.416369     1.258591
 H    -2.608917     2.026681     2.004213
 H    -4.105455     2.728509     0.298175
 H     4.300441     2.543759     0.390917
 H     0.058866     2.699216    -0.775815
 H     1.336549     1.448666    -1.599477
 H     2.710822     3.070303    -0.176371
 H    -3.595967    -1.075029    -2.633186
 H    -0.282811    -1.896956    -1.191258
 H     2.425789    -0.174273    -3.037700
 H     1.457132    -1.379718     1.663349
 H     3.716549     1.386763    -1.723856
 H    -3.427690    -3.232111     1.187757
 H    -3.986677    -1.840804     2.128076
 H    -0.552865    -0.408813     2.687540
 H    -2.492917    -2.796425    -1.211135
 H     4.417680     0.796718     2.329246
 H     0.727282     0.998048     2.161102
 H    -1.676704    -2.583876     2.818173
 H    -3.544203     3.069008    -1.345903
 H     0.670017     2.203248     0.889077
 H     2.745352    -2.935265     0.223542
 H     1.163894    -2.742413    -0.484007
 H    -0.885677     2.219701     1.929887
 H    -1.839328     3.796944     0.339414
 H    -4.411195    -1.447076    -0.281952
 H     3.850041    -1.461895     1.463625
 H    -1.122636    -3.462685     0.519001
 H    -2.265768    -0.155628     3.004619
 H     5.066262     0.230049     0.052934
