   28
scf done:  -442.305520
 B     0.374773     6.656625     5.268159
 H     0.853858     6.082763     6.193462
 B    -1.977143     7.595281     3.925979
 H    -3.155381     7.636928     3.767091
 B    -1.199605     6.173290     4.623501
 H    -1.835317     5.223264     4.953171
 B    -0.940055     8.124307     2.580608
 H    -1.364179     8.472534     1.525436
 B     0.285063     5.890511     3.682052
 H     0.636767     4.809459     3.332982
 B     0.556779     8.409507     4.993839
 H     1.172338     9.111467     5.730997
 B     1.395459     7.251806     3.949504
 H     2.559251     7.059117     3.821888
 B     0.616476     8.673711     3.242194
 H     1.236832     9.475213     2.624814
 B    -1.029434     7.749221     5.411423
 H    -1.566309     7.967763     6.450338
 B    -0.892337     8.976798     4.122099
 H    -1.324319    10.080897     4.219134
 C     0.462578     7.148441     2.548590
 C    -1.139803     6.487063     2.971135
 N     0.994751     6.824840     1.303830
 N    -1.692281     5.682518     1.963452
 H    -1.848320     4.734032     2.285132
 H    -2.556707     6.071679     1.604612
 H     0.463015     7.215651     0.536026
 H     1.116348     5.827814     1.175852
