   72
scf done: -1218.037500
 N     1.557251     0.506761     0.250312
 N    -1.504687     0.486095     0.196671
 C     4.158159    -3.051553     0.406472
 H     3.951949    -4.067526     0.738346
 C     3.102411    -2.260479    -0.042994
 C    -3.362452    -0.916225    -0.528176
 C     3.359675    -0.947233    -0.469683
 C     0.956026     1.745520     0.204857
 C     2.217523    -0.074689    -0.919380
 H     2.578126     0.720049    -1.580141
 H     1.488063    -0.660203    -1.490983
 C     5.466421    -2.571358     0.447040
 B    -1.424818     3.076952    -0.665837
 C    -0.921342     1.732519     0.196291
 B     0.034426     2.160046    -1.156376
 C    -5.628872    -1.148983     0.275072
 H    -6.573907    -0.690196     0.560378
 C     4.665905    -0.433463    -0.409666
 C    -3.206569    -2.309067    -0.461071
 C     5.696544    -1.257488     0.042761
 H     6.707814    -0.857757     0.087441
 C    -2.220008    -0.038115    -0.968461
 H    -1.524565    -0.596078    -1.603713
 H    -2.598320     0.796433    -1.568442
 B     1.469646     3.098624    -0.645936
 B    -0.000947     2.121044     1.572392
 C    -4.586714    -0.330308    -0.153226
 B     0.022028     3.936127    -1.197102
 C    -4.276009    -3.095180    -0.028328
 H    -4.149123    -4.174984     0.019799
 C    -5.494975    -2.536186     0.344524
 B    -1.443183     3.055347     1.098505
 B     1.450606     3.059535     1.118326
 C     6.597949    -3.449886     0.900066
 H     7.004613    -4.029607     0.061552
 H     6.270120    -4.165343     1.661213
 H     7.419976    -2.860217     1.318010
 C     1.703134    -2.811992    -0.055330
 H     1.649361    -3.757850     0.491238
 H     1.354251    -3.002961    -1.078584
 H     0.996451    -2.110372     0.401821
 B    -0.873658     4.492854     0.243350
 C    -1.914322    -2.973864    -0.850487
 H    -1.932835    -4.037169    -0.594672
 H    -1.058242    -2.521432    -0.341196
 H    -1.727212    -2.898852    -1.929319
 B     0.887221     4.501056     0.259578
 C    -4.794561     1.157762    -0.220659
 H    -5.777696     1.429834     0.173243
 H    -4.738745     1.526852    -1.252306
 H    -4.040439     1.708020     0.352381
 B    -0.004010     3.888811     1.680655
 C    -6.634435    -3.393432     0.818291
 H    -6.863622    -3.200142     1.873320
 H    -6.402928    -4.457928     0.716943
 H    -7.548206    -3.190994     0.247899
 C     4.971531     0.985133    -0.807907
 H     6.020704     1.224015    -0.612756
 H     4.356749     1.705862    -0.256241
 H     4.787353     1.159172    -1.875223
 H     0.039575     1.420028    -2.083815
 H    -2.446931     2.893781     1.716574
 H     0.000019     1.327186     2.457415
 H     1.525397     5.505405     0.281924
 H    -2.411058     2.966828    -1.319351
 H     2.444811     2.900839     1.753049
 H    -1.522242     5.490764     0.247656
 H     0.022750     4.527313    -2.229840
 H     2.470822     2.987648    -1.277309
 H    -0.011657     4.440554     2.735066
 H     2.032804     0.321901     1.122937
 H    -1.878602     0.196563     1.088981
