   54
scf done:  -982.407095
 B    -1.200041     1.992036     0.000000
 B    -0.785916     2.955252     1.448141
 B     0.973277     3.104242     1.444137
 B     1.532154     2.225799    -0.000000
 B    -1.411534     3.749584     0.000000
 B    -0.023913     4.452346     0.880868
 B     1.456970     3.997915    -0.000000
 C     0.202106     1.704683     0.926413
 N     0.355105     0.461073     1.519268
 C    -0.664928    -0.030841     2.433902
 H    -1.619833    -0.040402     1.895357
 H    -0.795787     0.635013     3.299764
 C    -0.323079    -1.418484     2.910261
 C    -0.585951    -1.794404     4.228054
 H    -1.014936    -1.070106     4.916974
 C    -0.301583    -3.084836     4.665815
 H    -0.510657    -3.363656     5.694901
 C     0.260500    -4.011268     3.791653
 H     0.488661    -5.016534     4.134667
 C     0.534844    -3.640280     2.477397
 H     0.976211    -4.356568     1.789449
 C     0.243406    -2.352480     2.040906
 H     0.458075    -2.051104     1.020729
 H    -2.048131     1.162296     0.000000
 H     2.450916     4.651815    -0.000000
 H    -1.407607     2.771652     2.443903
 H     2.488875     1.519161    -0.000000
 H    -2.497925     4.234417     0.000000
 H     1.611649     2.998549     2.442270
 H    -0.113262     5.449082     1.524748
 H     1.291879     0.327649     1.881491
 B    -0.785916     2.955252    -1.448141
 B     0.973277     3.104242    -1.444137
 B    -0.023913     4.452346    -0.880868
 C     0.202106     1.704683    -0.926413
 N     0.355105     0.461073    -1.519268
 C    -0.664928    -0.030841    -2.433902
 H    -1.619833    -0.040402    -1.895357
 H    -0.795787     0.635013    -3.299764
 C    -0.323079    -1.418484    -2.910261
 C    -0.585951    -1.794404    -4.228054
 H    -1.014936    -1.070106    -4.916974
 C    -0.301583    -3.084836    -4.665815
 H    -0.510657    -3.363656    -5.694901
 C     0.260500    -4.011268    -3.791653
 H     0.488661    -5.016534    -4.134667
 C     0.534844    -3.640280    -2.477397
 H     0.976211    -4.356568    -1.789449
 C     0.243406    -2.352480    -2.040906
 H     0.458075    -2.051104    -1.020729
 H    -1.407607     2.771652    -2.443903
 H     1.611649     2.998549    -2.442270
 H    -0.113262     5.449082    -1.524748
 H     1.291879     0.327649    -1.881491
