   68
FINAL HEAT OF FORMATION = -1611.960652
 C     9.189634    11.519865    15.411216
 C     8.195280    12.447176    15.678471
 C     7.079247    12.136666    16.509452
 C     6.959003    10.890948    17.093413
 C     7.990713     9.991242    16.826064
 C     7.738970     8.709862    17.321529
 C     8.643230     7.725460    16.977282
 C     9.766168     8.026561    16.150883
 C     9.965461     9.299020    15.667439
 C     9.046660    10.279915    16.017513
 C     5.987376    10.107681    17.867713
 C     6.444382     8.832799    17.999372
 C    10.436065    11.519739    14.530022
 C    11.443207    12.537165    15.070757
 C    11.144930    13.305412    16.197000
 C    12.076510    14.123106    16.809754
 C    13.369965    14.182165    16.321553
 C    13.684426    13.448903    15.197792
 C    12.737878    12.658723    14.539275
 C    13.192944    11.992197    13.338589
 C    12.473161    11.598743    12.284700
 C    11.049911    11.734634    12.056969
 C    10.651757    11.761805    10.717412
 C     9.333244    11.918842    10.348085
 C     8.378330    12.045431    11.340947
 C     8.751491    11.970264    12.671163
 C    10.077191    11.796726    13.071227
 C    11.004647     9.874640    14.719693
 C    12.312074     9.873900    15.516844
 C    12.185219    10.362358    16.823324
 C    13.255491    10.574105    17.666122
 C    14.532796    10.258892    17.236591
 C    14.682154     9.719488    15.980751
 C    13.603314     9.511871    15.104482
 C    13.986225     8.931838    13.836019
 C    13.255914     8.551208    12.788163
 C    11.827353     8.583205    12.556687
 C    11.447251     8.009431    11.331523
 C    10.138715     7.927960    10.918128
 C     9.153473     8.400740    11.767657
 C     9.508425     8.954453    12.980733
 C    10.836234     9.106292    13.403338
 H     8.228852    13.433307    15.231176
 H     6.317983    12.896758    16.638073
 H     8.507352     6.698594    17.296126
 H    10.440366     7.224115    15.879174
 H     5.047641    10.472893    18.255003
 H    10.170441    13.241898    16.653284
 H    11.790432    14.686586    17.688200
 H    14.120154    14.791201    16.807794
 H    14.688304    13.489644    14.793822
 H    14.267113    11.867248    13.262652
 H    13.027996    11.188494    11.448534
 H    11.412769    11.664474     9.952850
 H     9.055183    11.938109     9.302615
 H     7.332708    12.163527    11.087880
 H     7.960980    11.990768    13.403657
 H    11.208494    10.612961    17.207876
 H    13.082503    10.990263    18.649185
 H    15.392793    10.421005    17.872297
 H    15.672345     9.442877    15.640045
 H    15.053905     8.770629    13.735152
 H    13.819268     8.126737    11.964418
 H    12.227841     7.620197    10.689330
 H     9.890410     7.494382     9.958517
 H     8.108911     8.346695    11.492027
 H     8.701146     9.295117    13.612646
 H     5.923240     8.033950    18.506928
