   70
FINAL HEAT OF FORMATION = -1613.177717
 H     6.227482     5.982607    23.080192
 C     7.924065     4.623548    25.425971
 C     8.138092     5.995734    25.513528
 C     7.222597     6.791483    24.827564
 C     7.400546     8.152455    24.891440
 C     6.699071     4.414420    24.563879
 C     6.232104     5.857781    24.164689
 H     6.726868     8.831057    24.382633
 H     6.928248     3.814530    23.680868
 H     5.914509     3.880875    25.104094
 H     5.211313     6.046664    24.502247
 H    12.800187     7.769109    23.138495
 C    10.093991     5.728833    26.911805
 C     9.889020     4.364567    26.834455
 C     8.806266     3.807461    26.092643
 C     8.485930     8.706110    25.633091
 C     9.371404     7.894281    26.296815
 C     9.183780     6.526006    26.228678
 C    11.138941     6.607107    27.594729
 C    11.123284     6.409717    29.113775
 C    10.278344     5.476084    29.714144
 C    10.135922     5.379536    31.086582
 C    10.828588     6.244612    31.916227
 C    11.686035     7.161416    31.346921
 C    11.879433     7.234521    29.964844
 C    12.854722     8.204097    29.509487
 C    13.611181     8.150771    28.409815
 C    13.641955     7.110735    27.402005
 C    14.857595     6.940670    26.734138
 C    15.040606     5.950201    25.792734
 C    13.981857     5.107503    25.501891
 C    12.757608     5.298446    26.116794
 C    12.540798     6.307799    27.055294
 C    10.597840     8.192457    27.139326
 C    10.052801     8.921309    28.367803
 C     8.972836     8.275090    28.984497
 C     8.397121     8.711321    30.158583
 C    12.692287     8.403996    24.007358
 C    11.764722     8.079421    24.974226
 C    11.591553     8.812746    26.155972
 H    10.556540     3.676388    27.340024
 H     8.703460     2.729048    26.070869
 H     9.664086     4.831309    29.105900
 H     9.455660     4.646078    31.499603
 H    10.701853     6.205237    32.989895
 H    12.242496     7.840946    31.980518
 H    13.041452     9.026018    30.190855
 H    14.352072     8.932609    28.288349
 H    15.677005     7.604459    26.980693
 H    15.994024     5.837078    25.294069
 H    14.091001     4.317955    24.769711
 H    11.942205     4.666791    25.802966
 H     8.565136     7.376518    28.544496
 H     7.588249     8.143427    30.598063
 H    11.162931     7.200273    24.795797
 H    14.209929     9.816592    23.424571
 C     8.864288     9.870054    30.756378
 C     9.884013    10.556323    30.140652
 C    10.493770    10.114259    28.953871
 C    11.539747    10.990480    28.469740
 C    12.301365    10.937112    27.376212
 C    12.351577     9.982115    26.288931
 C    13.277271    10.311623    25.284082
 C    13.473127     9.536745    24.165623
 H     8.599248     9.782324    25.661311
 H     8.431619    10.236962    31.677518
 H    10.240199    11.478941    30.582408
 H    11.714869    11.849835    29.107991
 H    13.000262    11.758897    27.263528
 H    13.859507    11.216845    25.406521
