  212
FINAL HEAT OF FORMATION = -3345.912930
 C     0.887149     0.038941     0.039712
 C    -0.761885     0.041569     0.024515
 C     1.522235     0.368497    -1.341605
 C    -1.380423    -0.283415     1.416391
 C    -1.380454     1.406649    -0.399167
 C     1.472440    -1.343692     0.440307
 C     1.466184     1.078412     1.036505
 C    -1.356811    -1.009886    -0.955825
 C     1.085029     1.114472     2.376775
 C    -0.982908    -1.055302    -2.301698
 C    -1.010871    -1.420849     2.146208
 C     1.096258     1.445183    -2.126883
 C     1.105281    -2.516614    -0.222534
 C    -1.001145     2.618072     0.175615
 C     2.497459     1.928831     0.659295
 C    -2.408604    -1.836130    -0.573751
 C    -2.462753     0.440391     1.889974
 C     2.627753    -0.336025    -1.794712
 C     2.509370    -1.445627     1.359836
 C    -2.478540     1.437495    -1.253066
 C     1.641341     1.999973     3.288878
 C    -1.565644    -1.925489    -3.211739
 C    -1.665222    -1.802706     3.304119
 C     1.701656     1.775498    -3.327137
 C     1.678515    -3.749670     0.055627
 C    -1.652119     3.812994    -0.109170
 C     3.122195     2.797493     1.549002
 C    -3.056905    -2.689187    -1.467003
 C    -3.178903     0.064509     3.028830
 C     3.301235    -0.005122    -2.973019
 C     3.149050    -2.653752     1.633803
 C    -3.179429     2.603729    -1.541254
 C     2.665014     2.842694     2.858999
 C    -2.604810    -2.743141    -2.774859
 C    -2.759673    -1.047511     3.732532
 C     2.825801     1.050454    -3.727435
 C     2.708360    -3.799706     0.990153
 C    -2.747974     3.789583    -0.966177
 H     0.343037     0.422542     2.733659
 H    -0.225166    -0.386956    -2.666683
 H    -0.213041    -2.040386     1.782987
 H     0.252765     2.025411    -1.806570
 H     0.362278    -2.476473    -0.997839
 H    -0.182469     2.636638     0.873777
 H     2.856088     1.912567    -0.357305
 H    -2.775386    -1.809560     0.439800
 H    -2.808468     1.306336     1.350203
 H     3.002381    -1.171504    -1.225708
 H     2.864335    -0.559678     1.861907
 H    -2.840491     0.522099    -1.691647
 C     1.139060     1.972326     4.729888
 C    -1.127273    -1.909600    -4.676583
 C    -1.260893    -3.050887     4.084882
 C     1.164132     2.895413    -4.213426
 C     1.170200    -4.991994    -0.678039
 C    -1.135940     5.097200     0.527654
 C     4.314955     3.604361     1.044362
 C    -4.271434    -3.483354    -0.990148
 C    -4.428484     0.855339     3.400201
 C     4.510936    -0.838001    -3.382678
 C     4.328775    -2.658531     2.598268
 C    -4.414239     2.511217    -2.434845
 H     3.119960     3.527424     3.559085
 H    -3.078118    -3.415525    -3.473885
 H    -3.295068    -1.355430     4.620158
 H     3.318336     1.313427    -4.653286
 H     3.181636    -4.745424     1.207275
 H    -3.273788     4.707379    -1.182675
 C     5.121491    -0.366137    -4.701378
 C    -5.040859     0.388208     4.719938
 C    -5.011873     3.882671    -2.744219
 C     4.883744    -4.062067     2.836445
 C     4.869800     4.546712     2.110632
 C    -4.794624    -4.446229    -2.056150
 C     5.580844    -0.739600    -2.288386
 C    -5.469661     0.663311     2.288766
 C    -5.479377     1.668378    -1.720591
 C     5.445504    -1.789665     2.004234
 C     5.423264     2.620444     0.642699
 C    -5.392436    -2.492427    -0.648876
 C     4.084916    -2.301976    -3.548463
 C    -4.092122     2.345718     3.528077
 C    -4.053591     1.837586    -3.764061
 C     3.893908    -2.080976     3.949263
 C     3.921383     4.441560    -0.179191
 C    -3.923948    -4.300722     0.258172
 C     1.008220     2.388651    -5.653747
 C    -0.977948    -2.674041     5.544102
 C    -2.001594     6.308350     0.185642
 C     1.900789    -6.262688    -0.245304
 C     1.696821     3.130513     5.555683
 C    -1.583369    -3.163746    -5.426694
 C    -0.203238     3.393397    -3.746048
 C    -0.008967    -3.715230     3.515274
 C     0.286543     5.351857     0.017677
 C    -0.324548    -5.178849    -0.392485
 C    -0.391771     2.058064     4.758783
 C     0.397199    -1.822740    -4.793703
 C     2.149571     4.069062    -4.189929
 C    -2.406913    -4.069077     4.033978
 C    -1.106124     4.940006     2.051962
 C     1.359751    -4.816584    -2.188640
 C     1.573654     0.650841     5.375104
 C    -1.752894    -0.684437    -5.353512
 H     0.582021     3.170741    -6.285380
 H    -0.677496    -3.555600     6.114425
 H    -1.597736     7.199960     0.668034
 H     1.498711    -7.120731    -0.786293
 H     1.281749     3.101203     6.564179
 H    -1.188392    -3.150266    -6.443808
 H     1.958265     2.095890    -6.101730
 H    -1.851161    -2.248534     6.039726
 H    -3.029500     6.187646     0.532842
 H     2.970126    -6.217824    -0.459867
 H     2.782525     3.084651     5.654395
 H    -2.668954    -3.229464    -5.512321
 H     0.343159     1.524821    -5.696676
 H    -0.170976    -1.942878     5.613465
 H    -2.027208     6.505396    -0.887437
 H     1.774641    -6.463452     0.820341
 H     1.435946     4.097681     5.121775
 H    -1.225193    -4.075763    -4.945482
 H     1.797545     4.883192    -4.827397
 H    -2.145301    -4.970398     4.592654
 H    -0.756365     5.859545     2.525928
 H     0.979769    -5.689717    -2.723884
 H     1.203147     0.579842     6.400582
 H    -1.446556    -0.619130    -6.400395
 H     2.266014     4.460857    -3.177823
 H    -2.618185    -4.365934     3.005868
 H    -0.437645     4.138033     2.364904
 H     0.819991    -3.945728    -2.561033
 H     1.186819    -0.207574     4.823027
 H    -1.451096     0.239426    -4.857918
 H     3.137202     3.772680    -4.546869
 H    -3.329593    -3.673380     4.460289
 H    -2.099238     4.715897     2.445606
 H     2.412337    -4.696911    -2.448775
 H     2.660943     0.562320     5.403743
 H    -2.842932    -0.732112    -5.325959
 H    -0.577069     4.152046    -4.436020
 H     0.260764    -4.578527     4.126452
 H     0.710261     6.247511     0.478421
 H    -0.704885    -6.061736    -0.912337
 H    -0.748642     2.057728     5.790984
 H     0.694897    -1.832791    -5.844391
 H    -0.942915     2.591402    -3.704449
 H     0.848358    -3.040432     3.499689
 H     0.299344     5.495955    -1.064730
 H    -0.511368    -5.316170     0.673938
 H    -0.746119     2.971497     4.280058
 H     0.879503    -2.668822    -4.303400
 H    -0.167588     3.849303    -2.756229
 H    -0.154946    -4.074831     2.495772
 H     0.946802     4.515030     0.246016
 H    -0.912281    -4.324866    -0.727651
 H    -0.866816     1.218323     4.253166
 H     0.807497    -0.913939    -4.355327
 H     5.982446    -0.987407    -4.952945
 H    -5.919225     0.991698     4.953947
 H    -5.878685     3.770166    -3.397277
 H     5.721468    -4.014211     3.533901
 H     5.710329     5.111852     1.705139
 H    -5.644878    -5.004821    -1.661933
 H     4.414313    -0.441439    -5.529517
 H    -4.342349     0.490982     5.552307
 H    -4.299180     4.531075    -3.257248
 H     4.135222    -4.727845     3.270366
 H     4.122559     5.268002     2.446594
 H    -4.038259    -5.172734    -2.358982
 H     5.471452     0.666105    -4.645661
 H    -5.368526    -0.651875     4.676205
 H    -5.354267     4.397551    -1.844670
 H     5.255574    -4.520876     1.918447
 H     5.235862     4.005953     2.985080
 H    -5.140932    -3.924216    -2.949760
 H     6.467528    -1.314694    -2.563611
 H    -6.384081     1.216290     2.515857
 H    -6.373875     1.570144    -2.340073
 H     6.306325    -1.754470     2.675486
 H     6.309349     3.159834     0.300641
 H    -6.284741    -3.024166    -0.310376
 H     5.888027     0.295698    -2.131158
 H    -5.734726    -0.389576     2.176034
 H    -5.775535     2.128764    -0.776546
 H     5.783535    -2.189129     1.046090
 H     5.715668     1.993224     1.486659
 H    -5.668188    -1.896547    -1.520784
 H     5.222447    -1.126032    -1.333343
 H    -5.100654     1.014852     1.324245
 H    -5.120067     0.662342    -1.498303
 H     5.115614    -0.763681     1.833909
 H     5.108037     1.957855    -0.165316
 H    -5.099086    -1.801956     0.143556
 H     4.933230    -2.916406    -3.858745
 H    -4.980778     2.912519     3.814096
 H    -4.928046     1.788628    -4.416625
 H     4.729751    -2.068865     4.652122
 H     4.790793     4.976295    -0.567445
 H    -4.799100    -4.853105     0.606795
 H     3.697114    -2.721336    -2.619691
 H    -3.725459     2.767554     2.591703
 H    -3.697580     0.816695    -3.625802
 H     3.528768    -1.058595     3.857617
 H     3.528243     3.829741    -0.992168
 H    -3.590347    -3.670808     1.082524
 H     3.304719    -2.401314    -4.304883
 H    -3.327364     2.512619     4.288008
 H    -3.274013     2.390898    -4.290568
 H     3.093692    -2.677477     4.391241
 H     3.161372     5.181735     0.072839
 H    -3.133087    -5.022689     0.051451
