   66
FINAL HEAT OF FORMATION = -2154.831881
Cl     9.362172     8.837993     3.444144
Cl     4.454974    10.705934     0.069628
 C     7.086961    10.658516     0.688953
 C     7.711089    11.933267     0.176498
 C     9.132934    11.288884     0.816743
 C     8.196098    10.269095     1.450384
 C     8.096230     9.243184     2.338333
 C     6.889651     8.480470     2.385192
 C     6.755406     7.329242     3.193300
 C     5.599705     6.599209     3.207756
 C     4.505695     6.989802     2.421583
 C     4.591900     8.105778     1.638705
 C     5.774579     8.875622     1.588498
 C     5.880770    10.042222     0.781057
 C     6.974115    13.092062     0.906294
 C     6.225000    12.857111     2.064374
 C     5.489803    13.855271     2.679418
 C     5.469334    15.137731     2.157186
 C     6.194434    15.394188     1.008162
 C     6.922221    14.386636     0.391895
 C     7.677794    12.232828    -1.311791
 C     6.752107    11.643407    -2.167335
 C     6.713968    11.956880    -3.516954
 C     7.604249    12.872719    -4.053024
 C     8.532048    13.471236    -3.217008
 C     8.561499    13.155065    -1.867888
 C     9.965333    12.223385     1.785620
 C    10.284666    13.572563     1.130368
 C    11.310634    11.652416     2.275283
 C     9.201530    12.525538     3.087559
 C     9.994266    10.433923    -0.259221
 C     9.173994     9.718513    -1.359290
 C    11.070368    11.228781    -1.016645
 C    10.702660     9.251386     0.438960
 H     7.588874     7.011158     3.801987
 H     5.531968     5.714070     3.826001
 H     3.594219     6.407073     2.431058
 H     3.746595     8.399973     1.033129
 H     6.215478    11.881551     2.528064
 H     4.926720    13.618343     3.572659
 H     4.889381    15.918325     2.631449
 H     6.186981    16.381988     0.566203
 H     7.429855    14.635005    -0.526833
 H     6.066905    10.897317    -1.801066
 H     5.985509    11.470742    -4.152891
 H     7.577945    13.113991    -5.107501
 H     9.240789    14.188044    -3.611392
 H     9.296678    13.637887    -1.241632
 H     9.387987    14.122649     0.855380
 H    10.921403    13.481161     0.251922
 H    10.822040    14.198898     1.845410
 H    12.022693    11.427610     1.486796
 H    11.779181    12.408816     2.907553
 H    11.187015    10.766281     2.893711
 H     9.880244    13.017479     3.786828
 H     8.843383    11.622605     3.581153
 H     8.360920    13.195142     2.953726
 H     8.272408     9.226764    -0.993796
 H     8.903946    10.357261    -2.192286
 H     9.805057     8.929771    -1.772848
 H    10.664388    12.059067    -1.586122
 H    11.538822    10.558930    -1.740525
 H    11.869196    11.606777    -0.383956
 H    11.422905     8.826495    -0.262630
 H    11.248457     9.500828     1.338034
 H    10.002469     8.453240     0.682282
