   66
FINAL HEAT OF FORMATION = -1137.866532
 N     5.739384     7.714430     4.079025
 C     5.593833     7.116257     2.790026
 C     4.818332     8.620168     4.587551
 C     5.045807     5.838886     2.668985
 C     4.904292     5.287663     1.397127
 H     4.466600     4.299020     1.308875
 C     6.069515     7.785805     1.650253
 C     5.923803     7.189398     0.408937
 H     6.290314     7.713040    -0.467414
 C     5.320715     5.945977     0.255131
 C     4.627974     5.003516     3.842098
 H     5.009964     5.395795     4.778923
 H     4.990663     3.981816     3.725038
 H     3.540305     4.948541     3.921069
 B     3.178046     8.144840     4.672612
 H     2.868175     7.102638     4.212461
 B     5.030963    10.292615     4.585722
 H     6.018610    10.696106     4.073891
 C     5.144723     5.343899    -1.107573
 H     6.078925     5.350167    -1.670309
 H     4.412843     5.904032    -1.692203
 H     4.798101     4.312963    -1.050695
 C     6.735939     9.126832     1.733315
 H     6.016786     9.919080     1.938584
 H     7.228219     9.367079     0.792256
 H     7.496094     9.176568     2.514293
 B     3.737546     9.514310     3.674526
 H     3.767829     9.370776     2.500776
 B     2.251495     9.650257     4.613180
 H     1.200890     9.690076     4.065955
 B     3.417713    10.996762     4.597728
 H     3.206057    12.019615     4.036790
 H     6.687964     7.963749     4.314695
 N     4.310380     6.910681     6.692920
 C     4.934213     6.749917     7.970397
 C     3.983575     8.153000     6.165689
 C     6.314097     6.553825     8.054321
 C     6.892509     6.402794     9.312107
 H     7.965857     6.259483     9.374317
 C     4.143783     6.700389     9.128329
 C     4.762392     6.528995    10.356656
 H     4.147879     6.491142    11.249391
 C     6.140984     6.401717    10.473802
 C     7.203281     6.454054     6.851174
 H     6.643412     6.222518     5.950892
 H     7.952378     5.676384     6.998842
 H     7.742359     7.387656     6.676130
 B     5.212313     9.336874     6.073522
 H     6.266331     9.088634     6.544626
 B     2.425995     8.804719     6.143675
 H     1.577516     8.158861     6.657548
 C     6.785964     6.263357    11.820387
 H     6.197380     5.629907    12.483994
 H     6.884928     7.236397    12.305226
 H     7.783612     5.832548    11.746447
 C     2.647703     6.805318     9.074225
 H     2.319646     7.821811     8.857736
 H     2.209702     6.517370    10.028642
 H     2.206776     6.160595     8.312272
 B     3.738513     9.551371     7.052511
 H     3.837520     9.469982     8.227942
 B     4.371731    10.892911     6.099689
 H     4.855171    11.832080     6.637408
 B     2.623384    10.554419     6.102537
 H     1.836611    11.255134     6.646374
 H     3.612489     6.212681     6.483144
