   74
FINAL HEAT OF FORMATION = -1241.608533
 C     0.832082     5.546015     9.045187
 C     1.596398     5.623505     7.681113
 C     0.875717     3.991517     9.689224
 C     1.829950     7.064161     7.203934
 C    -0.446928     3.732647    10.442428
 C    -0.572336     6.232598     8.710445
 C     2.061411     3.793485    10.694409
 C    -1.484343     6.492981     9.922498
 C     1.709038     7.928336     9.517204
 C     3.549730     2.582870     9.058846
 C     1.470341     6.523554    10.088206
 C    -0.320505     7.687919     8.170646
 C    -1.304690     5.492998     7.584976
 C     1.922897     2.469478    11.479562
 C     0.920828     1.414031     9.500938
 C     0.607272     6.694089    11.347193
 C     0.482631     7.704615     6.881803
 C     1.059196     2.753605     8.725820
 C     0.362567     8.573022     9.206750
 C     2.052753     1.284623    10.523830
 C    -0.531849     2.417627    11.201289
 C     3.433558     3.775273    10.007066
 C     3.417106     1.291089     9.853139
 C     2.427305     2.638820     8.027940
 C    -0.497880     5.526206     6.283754
 C    -0.414055     1.275903    10.209947
 C    -0.751791     7.305089    10.998131
 C     0.597306     2.377382    12.219670
 C     2.562511     7.868820     8.262898
 C    -0.495749     8.704704    10.453885
 C     0.873117     4.912458     6.524367
 C    -0.288519     6.955992     5.807471
 H     2.452913     6.156510    10.386125
 H     4.517613     2.611354     8.549097
 H    -1.499021     2.378384    11.712519
 H    -1.238749     1.313973     9.490446
 H     3.530554     7.405163     8.482722
 H     0.760675     3.846266     6.669882
 H     0.523405     9.565624     8.768025
 H     2.228412     8.514796    10.285375
 H     3.629184     4.706080     9.470962
 H     1.131487     7.369810    12.032409
 H     4.208704     1.212126    10.605465
 H     3.522011     0.425741     9.190638
 H    -1.317317     8.101037     7.959693
 H    -2.337037     7.084370     9.567212
 H    -1.439890     9.202336    10.209473
 H     0.561614     1.455269    12.808931
 H     0.495904     5.762845    11.899507
 H     2.062099     4.579790    11.449873
 H     0.493900     3.206008    12.928710
 H     2.775427     8.879064     7.897745
 H     2.590181     5.195646     7.809774
 H     4.210122     3.708326    10.777156
 H     0.257560     2.747335     7.981924
 H     2.743784     2.439446    12.207509
 H     0.258162     6.956791     4.858869
 H    -1.245449     7.455732     5.623659
 H    -1.517197     4.456364     7.862567
 H     2.443400     7.016640     6.295917
 H    -0.476371     0.303318    10.709320
 H    -1.276295     3.773941     9.734595
 H    -1.027147     4.951534     5.517144
 H     0.006529     9.326268    11.202687
 H    -0.623193     4.514440    11.171908
 H     2.428723     1.714192     7.439863
 H     2.623838     3.429319     7.313618
 H    -1.929704     5.593381    10.331130
 H    -1.371128     7.360890    11.898663
 H     0.635052     8.745104     6.568537
 H     1.014125     0.613390     8.756925
 H     1.484979     5.020750     5.621199
 H    -2.280572     5.967192     7.424191
 H     1.924142     0.350340    11.084262
