   23
FINAL HEAT OF FORMATION =  -738.749378
 C     7.867883     5.686857     9.895957
 C     8.050963     6.960805    10.384743
 C     7.039843     7.896315    10.229698
 C     5.866917     7.527245     9.583824
 C     5.737328     6.242229     9.116742
 N     6.727655     5.351025     9.278403
 C     6.535017     3.993811     8.770318
 C     7.560773     2.858060     8.835604
 C     5.446749     3.010011     9.227354
 C     6.235706     3.614325     7.311787
 C     6.294297     2.315759     8.141537
 I     6.014446     0.368506     7.419848
 H     8.616931     4.914097     9.985976
 H     8.978093     7.207217    10.880974
 H     7.161989     8.902260    10.607413
 H     5.055438     8.225917     9.441842
 H     4.850866     5.891464     8.608156
 H     7.782306     2.437702     9.816566
 H     8.449600     2.945753     8.210688
 H     4.415547     3.238301     8.958474
 H     5.529479     2.613488    10.238388
 H     7.033623     3.766825     6.586312
 H     5.258351     3.882930     6.910296
