   54
FINAL HEAT OF FORMATION =  -981.337269
 B     1.113545     0.084558     8.109569
 B     0.701708     1.475531     9.145538
 B    -1.038590     1.381135     9.404664
 B    -1.602465    -0.061185     8.527392
 B     1.439836     0.033597     9.840522
 B     0.071258     0.825973    10.667121
 B    -1.397763    -0.107776    10.283805
 C    -0.343561     0.935442     7.944576
 N    -0.614477     1.559318     6.746711
 C     0.354913     2.406211     6.087968
 H     1.334557     1.933242     6.173350
 H     0.444380     3.385652     6.574064
 C     0.017149     2.586839     4.631205
 C     0.312773     3.785488     3.992208
 H     0.745036     4.602881     4.557874
 C     0.060251     3.946307     2.638271
 H     0.296247     4.885305     2.154953
 C    -0.501073     2.909161     1.908516
 H    -0.703580     3.034154     0.852831
 C    -0.808193     1.713897     2.541935
 H    -1.249756     0.898533     1.983174
 C    -0.552061     1.552937     3.895034
 H    -0.790017     0.617728     4.385639
 H     1.904273     0.134323     7.231170
 H    -2.339982    -0.168386    11.000093
 H     1.252254     2.506384     8.953433
 H    -2.608977    -0.075810     7.901567
 H     2.552251     0.058787    10.248397
 H    -1.723969     2.347515     9.380756
 H     0.193710     1.438405    11.674426
 H    -1.560642     1.901827     6.679907
 B     0.815463    -1.411045     9.033550
 B    -0.918829    -1.498037     9.312038
 B     0.147373    -0.932766    10.602634
 C    -0.275791    -0.882755     7.878519
 N    -0.443460    -1.420669     6.614287
 C     0.538661    -2.363980     6.098455
 H     1.532386    -1.953520     6.278935
 H     0.495720    -3.324932     6.624682
 C     0.331756    -2.572140     4.625217
 C    -0.351182    -3.686014     4.154194
 H    -0.713049    -4.429578     4.855259
 C    -0.565015    -3.862508     2.793823
 H    -1.095246    -4.737167     2.440670
 C    -0.093868    -2.922861     1.890921
 H    -0.254399    -3.061262     0.829728
 C     0.591918    -1.807123     2.352283
 H     0.967675    -1.070400     1.654166
 C     0.800931    -1.634700     3.710333
 H     1.334298    -0.760791     4.064433
 H     1.464320    -2.368824     8.783758
 H    -1.513342    -2.519150     9.218980
 H     0.335177    -1.603964    11.561322
 H    -1.394136    -1.703788     6.428244
