   72
FINAL HEAT OF FORMATION = -1216.734160
 N    10.358108     9.132256     2.108172
 N     8.524410     6.814892     1.402467
 C    12.400152    11.909303    -0.636034
 H    12.610082    11.850219    -1.698546
 C    11.308279    11.219266    -0.126900
 C     6.954063     6.128228    -0.312646
 C    11.033809    11.285336     1.243262
 C     9.884600     8.397420     3.169470
 C     9.893872    10.485069     1.817365
 H     9.513538    10.960039     2.723954
 H     9.055936    10.446396     1.117451
 C    13.233333    12.662341     0.179788
 B     7.715784     6.756584     4.004163
 C     8.789624     6.979432     2.738219
 B     8.225313     8.395793     3.501723
 C     6.209360     3.972811    -1.079870
 H     5.783318     2.999592    -0.860772
 C    11.871231    12.023445     2.085577
 C     7.300328     6.461292    -1.624309
 C    12.953389    12.702974     1.538064
 H    13.600523    13.273358     2.194968
 C     7.219597     7.091017     0.813402
 H     7.181497     8.122505     0.457437
 H     6.442438     7.001131     1.574487
 B     9.434848     8.974705     4.682113
 B    10.414259     6.778114     3.189375
 C     6.407259     4.867124    -0.038000
 B     8.088252     7.976588     5.219467
 C     7.086932     5.536937    -2.641834
 H     7.357368     5.803406    -3.657606
 C     6.543133     4.286925    -2.391487
 B     9.124006     5.719784     3.804259
 B    10.842357     7.942147     4.467972
 C    14.391499    13.420848    -0.398123
 H    14.063081    14.371009    -0.823930
 H    14.879886    12.861422    -1.196211
 H    15.142776    13.645254     0.358077
 C    10.452036    10.399823    -1.050801
 H    10.877284    10.364374    -2.052699
 H     9.443733    10.809331    -1.142023
 H    10.350674     9.372465    -0.698496
 B     8.690583     6.306522     5.412006
 C     7.895056     7.798169    -1.965892
 H     8.229426     7.822585    -3.002048
 H     8.755365     8.034251    -1.339748
 H     7.172936     8.607816    -1.840870
 B     9.740297     7.658305     5.821208
 C     6.021814     4.463659     1.356815
 H     5.664459     3.435315     1.378607
 H     5.221954     5.091892     1.753556
 H     6.856363     4.533692     2.055788
 B    10.394435     6.286745     4.885373
 C     6.329205     3.291459    -3.493806
 H     6.978057     2.422163    -3.373220
 H     6.538332     3.722774    -4.471906
 H     5.301607     2.926101    -3.506317
 C    11.633152    12.090238     3.567287
 H    12.425107    12.648198     4.064159
 H    11.596245    11.100056     4.024394
 H    10.690101    12.586042     3.805954
 H     7.521854     9.123647     2.888327
 H     9.032479     4.625666     3.356349
 H    11.174691     6.451380     2.341591
 H    10.075472     7.898459     6.932725
 H     6.618806     6.397092     3.741045
 H    11.943504     8.381914     4.479231
 H     8.255001     5.562279     6.225549
 H     7.227549     8.437110     5.892084
 H     9.525685    10.141431     4.865428
 H    11.204355     5.533815     5.312259
 H    11.338026     8.986801     1.925374
 H     9.055616     6.087566     0.953255
