   50
FINAL HEAT OF FORMATION =  -978.902565
 B     5.693766     3.530527     3.593436
 B     4.163934     4.413816     3.667908
 B     3.611114     4.409984     5.344765
 B     5.691926     5.290993     3.584306
 B     4.398228     5.843457     4.677940
 C     4.454320     3.089504     4.689008
 C     2.750933     1.669533     4.054665
 H     2.110051     2.517984     3.794942
 N     3.922886     1.815720     4.509169
 C     2.180523     0.342823     3.837349
 C     0.904028     0.233343     3.293393
 H     0.346370     1.128922     3.045375
 C     0.343665    -1.013437     3.064086
 H    -0.647698    -1.091113     2.638322
 C     1.057583    -2.158131     3.381622
 H     0.622812    -3.133079     3.204019
 C     2.332430    -2.055521     3.928012
 H     2.886825    -2.951154     4.175301
 C     2.893427    -0.813913     4.154746
 H     3.884789    -0.720316     4.577852
 H     2.466768     4.236941     5.597307
 H     5.970432     2.748676     2.754535
 H     3.396544     4.248062     2.780690
 H     6.014108     5.869680     2.601741
 H     3.782542     6.835897     4.476393
 B     4.800958     3.525976     6.309786
 B     6.326637     4.417222     6.237087
 B     6.878928     4.419286     4.559786
 B     4.793568     5.286205     6.322009
 B     6.084335     5.847303     5.229318
 C     6.043627     3.093268     5.213676
 C     7.759902     1.676082     5.828180
 H     8.409944     2.524156     6.065333
 N     6.579652     1.822115     5.395390
 C     8.323960     0.347254     6.050219
 C     9.613633     0.230948     6.560254
 H    10.188205     1.123608     6.778160
 C    10.164593    -1.019268     6.793982
 H    11.166347    -1.103119     7.193283
 C     9.427552    -2.159557     6.515561
 H     9.854847    -3.136963     6.697622
 C     8.139065    -2.049917     6.003477
 H     7.566582    -2.942271     5.787450
 C     7.587638    -0.805115     5.771819
 H     6.585599    -0.704954     5.375967
 H     8.024162     4.254027     4.306161
 H     4.527893     2.740949     7.146909
 H     7.095141     4.252951     7.123581
 H     4.468175     5.861417     7.305582
 H     6.694552     6.842799     5.432223
