   68
scf done: -1613.987788
 C     1.539663    -0.000344     1.125885
 C     2.415848    -0.000648     2.226435
 C     3.844835    -0.000708     2.068555
 C     4.426107    -0.000442     0.794051
 C     3.521259    -0.000126    -0.291529
 C     4.169816     0.000105    -1.547465
 C     3.334453     0.000413    -2.672849
 C     1.904745     0.000444    -2.527339
 C     1.302017     0.000198    -1.265517
 C     2.148545    -0.000090    -0.142648
 C     5.757514    -0.000406     0.161167
 C     5.605981    -0.000084    -1.214107
 C     0.005069    -0.000100     0.993775
 C    -0.601314     1.272951     1.620901
 C     0.225822     2.240267     2.234876
 C    -0.265334     3.449114     2.740288
 C    -1.626661     3.755266     2.620770
 C    -2.467737     2.823043     2.017407
 C    -1.996294     1.573145     1.543801
 C    -3.012887     0.679156     1.013052
 C    -3.013169    -0.678298     1.013031
 C    -1.996864    -1.572707     1.543585
 C    -2.468664    -2.822592     2.016890
 C    -1.627870    -3.755160     2.620104
 C    -0.266468    -3.449395     2.739779
 C     0.225051    -2.240608     2.234595
 C    -0.601795    -1.272954     1.620760
 C    -0.174833     0.000070    -0.837803
 C    -0.745192     1.355014    -1.309981
 C     0.096402     2.467393    -1.058774
 C    -0.240337     3.784656    -1.379716
 C    -1.466661     4.051380    -1.999702
 C    -2.312808     2.981605    -2.273189
 C    -1.991668     1.633192    -1.949407
 C    -3.013928     0.677780    -2.340190
 C    -3.013983    -0.677823    -2.340015
 C    -1.991700    -1.633188    -1.949156
 C    -2.312865    -2.981635    -2.272711
 C    -1.466530    -4.051334    -1.999491
 C    -0.239991    -3.784495    -1.379995
 C     0.096718    -2.467198    -1.059143
 C    -0.745070    -1.354896    -1.310076
 H     2.017037    -0.000789     3.246749
 H     4.458742    -0.000916     2.976824
 H     3.747335     0.000652    -3.688363
 H     1.287838     0.000695    -3.431966
 H     6.713007    -0.000619     0.690325
 H     1.300796     2.065335     2.294162
 H     0.428174     4.160583     3.200786
 H    -2.025396     4.706027     2.989043
 H    -3.537994     3.037252     1.919194
 H    -3.928951     1.173820     0.667281
 H    -3.929452    -1.172566     0.667267
 H    -3.538975    -3.036480     1.918567
 H    -2.026854    -4.705934     2.988086
 H     0.426782    -4.161121     3.200269
 H     1.300066    -2.065989     2.293905
 H     1.061595     2.298972    -0.577692
 H     0.456861     4.593540    -1.139554
 H    -1.757392     5.072690    -2.265835
 H    -3.273451     3.168125    -2.766675
 H    -3.924156     1.147675    -2.734668
 H    -3.924294    -1.147748    -2.734257
 H    -3.273642    -3.168276    -2.765877
 H    -1.757335    -5.072685    -2.265395
 H     0.457390    -4.593312    -1.140149
 H     1.062030    -2.298670    -0.578316
 H     6.424889    -0.000012    -1.937139
