   70
scf done: -1615.203093
 H    -6.123976    -0.883552    -1.714147
 C    -4.364496    -0.000258     0.850383
 C    -3.499116     0.000127    -0.259450
 C    -4.129859     0.000276    -1.519634
 C    -3.307452     0.000425    -2.645335
 C    -5.789684    -0.000289     0.308640
 C    -5.633821     0.000068    -1.266642
 H    -3.729852     0.000509    -3.656542
 H    -6.357020    -0.883974     0.652818
 H    -6.357199     0.883147     0.653180
 H    -6.124153     0.883801    -1.713740
 H    -0.417582    -4.594890    -1.116542
 C    -1.487296    -0.000282     1.139662
 C    -2.342777    -0.000642     2.251383
 C    -3.773531    -0.000656     2.112872
 C    -1.877345     0.000431    -2.506065
 C    -1.273250     0.000277    -1.248748
 C    -2.107585     0.000124    -0.121593
 C     0.047566    -0.000131     0.992025
 C     0.662291     1.271177     1.617041
 C    -0.156535     2.236304     2.245275
 C     0.341003     3.442929     2.749807
 C     1.700785     3.749722     2.614979
 C     2.534162     2.819627     1.997855
 C     2.056456     1.571664     1.525435
 C     3.066747     0.679079     0.980265
 C     3.066992    -0.678278     0.980225
 C     2.056993    -1.571264     1.525307
 C     2.535134    -2.819069     1.997680
 C     1.702048    -3.749564     2.614612
 C     0.342118    -3.443374     2.749206
 C    -0.155835    -2.236895     2.244718
 C     0.662702    -1.271314     1.616805
 C     0.209245     0.000089    -0.833348
 C     0.777298     1.354827    -1.311114
 C    -0.058808     2.468124    -1.046766
 C     0.275574     3.785648    -1.368462
 C     0.274850    -3.785464    -1.368800
 C    -0.059368    -2.467867    -1.047160
 C     0.777027    -1.354740    -1.311212
 H    -1.928111    -0.000928     3.265691
 H    -4.380088    -0.000987     3.025614
 H    -1.230662     2.060600     2.315547
 H    -0.346620     4.152587     3.221999
 H     2.104076     4.699123     2.981991
 H     3.603209     3.033934     1.887105
 H     3.977962     1.174313     0.622609
 H     3.978391    -1.173165     0.622567
 H     3.604278    -3.032959     1.887039
 H     2.105713    -4.698797     2.981644
 H    -0.345315    -4.153383     3.221150
 H    -1.230061    -2.061709     2.314740
 H    -1.017617     2.298166    -0.553792
 H    -0.416580     4.595225    -1.115938
 H    -1.018291    -2.297751    -0.554453
 H     1.781128    -5.074000    -2.273200
 C     1.493313     4.052355    -2.005485
 C     2.333487     2.981897    -2.293498
 C     2.015041     1.633251    -1.967008
 C     3.031136     0.677636    -2.373346
 C     3.031131    -0.677918    -2.373125
 C     2.014899    -1.633393    -1.966790
 C     2.333220    -2.982086    -2.293135
 C     1.492748    -4.052401    -2.005385
 H    -1.262307     0.000522    -3.412404
 H     1.781760     5.073914    -2.273406
 H     3.287149     3.167744    -2.800718
 H     3.935765     1.147453    -2.780791
 H     3.935772    -1.147866    -2.780387
 H     3.287003    -3.168131    -2.800064
