  212
scf done: -3348.407788
 C     0.848434    -0.002963     0.010547
 C    -0.848434     0.002963    -0.010547
 C     1.483306     0.326018    -1.399057
 C    -1.483306    -0.326018     1.399057
 C    -1.451330     1.400735    -0.434094
 C     1.451330    -1.400735     0.434094
 C     1.438667     1.062819     1.013350
 C    -1.438667    -1.062819    -1.013350
 C     1.054627     1.116432     2.374244
 C    -1.054627    -1.116432    -2.374244
 C    -1.090839    -1.449339     2.171659
 C     1.090839     1.449339    -2.171659
 C     1.083117    -2.609830    -0.200772
 C    -1.083117     2.609830     0.200772
 C     2.500301     1.905667     0.625029
 C    -2.500301    -1.905667    -0.625029
 C    -2.599901     0.397537     1.857622
 C     2.599901    -0.397537    -1.857622
 C     2.532087    -1.468549     1.338997
 C    -2.532087     1.468549    -1.338997
 C     1.644056     2.003999     3.296227
 C    -1.644056    -2.003999    -3.296227
 C    -1.748977    -1.812626     3.359505
 C     1.748977     1.812626    -3.359505
 C     1.720342    -3.836819     0.074320
 C    -1.720342     3.836819    -0.074320
 C     3.148865     2.781699     1.520539
 C    -3.148865    -2.781699    -1.520539
 C    -3.311130     0.051647     3.028824
 C     3.311130    -0.051647    -3.028824
 C     3.225504    -2.665481     1.615380
 C    -3.225504     2.665481    -1.615380
 C     2.689866     2.835027     2.846642
 C    -2.689866    -2.835027    -2.846642
 C    -2.864271    -1.049199     3.769392
 C     2.864271     1.049199    -3.769392
 C     2.794768    -3.843477     0.983975
 C    -2.794768     3.843477    -0.983975
 H     0.280806     0.439173     2.730773
 H    -0.280806    -0.439173    -2.730773
 H    -0.254390    -2.053687     1.828693
 H     0.254390     2.053687    -1.828693
 H     0.288303    -2.598780    -0.944869
 H    -0.288303     2.598780     0.944869
 H     2.861975     1.865913    -0.402350
 H    -2.861975    -1.865913     0.402350
 H    -2.958317     1.248282     1.278466
 H     2.958317    -1.248282    -1.278466
 H     2.873934    -0.554613     1.825569
 H    -2.873934     0.554613    -1.825569
 C     1.195242     1.992951     4.775586
 C    -1.195242    -1.992951    -4.775586
 C    -1.318276    -3.025048     4.211853
 C     1.318276     3.025048    -4.211853
 C     1.241662    -5.125516    -0.631080
 C    -1.241662     5.125516     0.631080
 C     4.367664     3.592415     1.029895
 C    -4.367664    -3.592415    -1.029895
 C    -4.559197     0.867001     3.424335
 C     4.559197    -0.867001    -3.424335
 C     4.441042    -2.634922     2.565430
 C    -4.441042     2.634922    -2.565430
 H     3.168750     3.518522     3.549601
 H    -3.168750    -3.518522    -3.549601
 H    -3.393346    -1.335945     4.682268
 H     3.393346     1.335945    -4.682268
 H     3.311029    -4.781159     1.193504
 H    -3.311029     4.781159    -1.193504
 C     5.171634    -0.394680    -4.757790
 C    -5.171634     0.394680     4.757790
 C    -5.072092     4.028149    -2.761155
 C     5.072092    -4.028149     2.761155
 C     4.932575     4.524487     2.120029
 C    -4.932575    -4.524487    -2.120029
 C     5.632256    -0.711731    -2.317501
 C    -5.632256     0.711731     2.317501
 C    -5.523526     1.695606    -1.976459
 C     5.523526    -1.695606     1.976459
 C     5.485794     2.602099     0.615835
 C    -5.485794    -2.602099    -0.615835
 C     4.190311    -2.363256    -3.567362
 C    -4.190311     2.363256     3.567362
 C    -4.009810     2.104472    -3.952737
 C     4.009810    -2.104472     3.952737
 C     3.985653     4.460545    -0.192912
 C    -3.985653    -4.460545     0.192912
 C     1.044708     2.571873    -5.667728
 C    -1.044708    -2.571873     5.667728
 C    -2.069135     6.362546     0.228069
 C     2.069135    -6.362546    -0.228069
 C     1.765598     3.186669     5.569635
 C    -1.765598    -3.186669    -5.569635
 C     0.042652     3.699965    -3.674979
 C    -0.042652    -3.699965     3.674979
 C     0.237247     5.393983     0.262962
 C    -0.237247    -5.393983    -0.262962
 C    -0.346436     2.042884     4.887745
 C     0.346436    -2.042884    -4.887745
 C     2.457897     4.074286    -4.220480
 C    -2.457897    -4.074286     4.220480
 C    -1.349732     4.956419     2.165131
 C     1.349732    -4.956419    -2.165131
 C     1.700982     0.686532     5.434857
 C    -1.700982    -0.686532    -5.434857
 H     0.743696     3.438532    -6.283814
 H    -0.743696    -3.438532     6.283814
 H    -1.682335     7.251809     0.756012
 H     1.682335    -7.251809    -0.756012
 H     1.372592     3.165314     6.601356
 H    -1.372592    -3.165314    -6.601356
 H     1.935995     2.122231    -6.137452
 H    -1.935995    -2.122231     6.137452
 H    -3.134231     6.253007     0.498774
 H     3.134231    -6.253007    -0.498774
 H     2.867041     3.154616     5.639023
 H    -2.867041    -3.154616    -5.639023
 H     0.231700     1.826445    -5.706366
 H    -0.231700    -1.826445     5.706366
 H    -2.006184     6.566481    -0.855374
 H     2.006184    -6.566481     0.855374
 H     1.475269     4.152060     5.118818
 H    -1.475269    -4.152060    -5.118818
 H     2.176515     4.941137    -4.846036
 H    -2.176515    -4.941137     4.846036
 H    -0.987623     5.867912     2.675277
 H     0.987623    -5.867912    -2.675277
 H     1.377327     0.635180     6.490872
 H    -1.377327    -0.635180    -6.490872
 H     2.664889     4.442454    -3.200393
 H    -2.664889    -4.442454     3.200393
 H    -0.743519     4.107723     2.522159
 H     0.743519    -4.107723    -2.522159
 H     1.307053    -0.202268     4.912810
 H    -1.307053     0.202268    -4.912810
 H     3.395834     3.656604    -4.625242
 H    -3.395834    -3.656604     4.625242
 H    -2.395489     4.784292     2.474585
 H     2.395489    -4.784292    -2.474585
 H     2.803669     0.632240     5.412726
 H    -2.803669    -0.632240    -5.412726
 H    -0.237655     4.541544    -4.333317
 H     0.237655    -4.541544     4.333317
 H     0.602926     6.297582     0.785145
 H    -0.602926    -6.297582    -0.785145
 H    -0.644825     2.000425     5.951279
 H     0.644825    -2.000425    -5.951279
 H    -0.810492     3.000841    -3.638749
 H     0.810492    -3.000841     3.638749
 H     0.352201     5.559662    -0.822939
 H    -0.352201    -5.559662     0.822939
 H    -0.745764     2.978979     4.461146
 H     0.745764    -2.978979    -4.461146
 H     0.185490     4.105697    -2.659305
 H    -0.185490    -4.105697     2.659305
 H     0.886836     4.550670     0.549374
 H    -0.886836    -4.550670    -0.549374
 H    -0.835593     1.200768     4.372116
 H     0.835593    -1.200768    -4.372116
 H     6.049365    -1.017432    -5.004563
 H    -6.049365     1.017432     5.004563
 H    -5.930812     3.951142    -3.450841
 H     5.930812    -3.951142     3.450841
 H     5.796024     5.083388     1.718653
 H    -5.796024    -5.083388    -1.718653
 H     4.454183    -0.482873    -5.592797
 H    -4.454183     0.482873     5.592797
 H    -4.356174     4.745563    -3.199694
 H     4.356174    -4.745563     3.199694
 H     4.184216     5.263227     2.457370
 H    -4.184216    -5.263227    -2.457370
 H     5.514734     0.653711    -4.706032
 H    -5.514734    -0.653711     4.706032
 H    -5.446373     4.449571    -1.811553
 H     5.446373    -4.449571     1.811553
 H     5.284465     3.960749     3.001854
 H    -5.284465    -3.960749    -3.001854
 H     6.533645    -1.299942    -2.569404
 H    -6.533645     1.299942     2.569404
 H    -6.400488     1.652050    -2.648041
 H     6.400488    -1.652050     2.648041
 H     6.374093     3.154245     0.257716
 H    -6.374093    -3.154245    -0.257716
 H     5.933723     0.345097    -2.206448
 H    -5.933723    -0.345097     2.206448
 H    -5.866139     2.057772    -0.990840
 H     5.866139    -2.057772     0.990840
 H     5.794502     1.974594     1.470824
 H    -5.794502    -1.974594    -1.470824
 H     5.261408    -1.060784    -1.338717
 H    -5.261408     1.060784     1.338717
 H    -5.146797     0.666641    -1.845588
 H     5.146797    -0.666641     1.845588
 H     5.155629     1.928935    -0.193821
 H    -5.155629    -1.928935     0.193821
 H     5.087405    -2.953590    -3.828935
 H    -5.087405     2.953590     3.828935
 H    -4.877975     2.066538    -4.635989
 H     4.877975    -2.066538     4.635989
 H     4.873898     5.001246    -0.567145
 H    -4.873898    -5.001246     0.567145
 H     3.777074    -2.774613    -2.631264
 H    -3.777074     2.774613     2.631264
 H    -3.587103     1.088601    -3.888525
 H     3.587103    -1.088601     3.888525
 H     3.589531     3.851550    -1.022988
 H    -3.589531    -3.851550     1.022988
 H     3.438325    -2.511404    -4.362121
 H    -3.438325     2.511404     4.362121
 H    -3.246191     2.760561    -4.406584
 H     3.246191    -2.760561     4.406584
 H     3.218589     5.207253     0.075485
 H    -3.218589    -5.207253    -0.075485
