   66
scf done: -2156.950330
Cl    -2.002274     3.081631    -0.806005
Cl    -1.960428    -3.071572     0.894147
 C    -0.718205    -0.683621     0.200139
 C     0.811546    -0.719765     0.407266
 C     0.793095     0.742944    -0.446828
 C    -0.730930     0.679634    -0.226112
 C    -1.919509     1.371505    -0.379270
 C    -3.169676     0.684697    -0.181312
 C    -4.428124     1.332020    -0.342612
 C    -5.621615     0.648909    -0.178132
 C    -5.610816    -0.724255     0.158867
 C    -4.406873    -1.386894     0.330683
 C    -3.158441    -0.719199     0.173485
 C    -1.897826    -1.383798     0.381143
 C     1.617473    -1.871260    -0.199408
 C     0.987399    -2.993282    -0.775084
 C     1.721620    -4.076266    -1.280990
 C     3.120551    -4.070681    -1.229191
 C     3.771675    -2.958373    -0.678270
 C     3.031393    -1.878819    -0.177007
 C     1.072128    -0.652207     2.030904
 C    -0.001199     0.188138     2.765939
 C     0.987343    -2.097437     2.585066
 C     2.440626    -0.102476     2.504857
 C     1.590370     1.896003     0.163409
 C     0.959741     2.972190     0.820090
 C     1.693220     4.035288     1.368393
 C     3.090059     4.054606     1.276209
 C     3.741112     2.986110     0.643477
 C     3.003081     1.925361     0.102843
 C     1.034387     0.675533    -2.066727
 C     0.119007    -0.356487    -2.770313
 C     0.681128     2.060080    -2.664899
 C     2.485085     0.384586    -2.526915
 H    -4.439698     2.391020    -0.608429
 H    -6.571886     1.175411    -0.311647
 H    -6.552673    -1.267095     0.286400
 H    -4.402871    -2.445882     0.596691
 H    -0.101101    -3.026721    -0.834427
 H     1.188425    -4.927364    -1.717701
 H     3.696849    -4.915849    -1.619167
 H     4.865713    -2.921681    -0.642128
 H     3.573904    -1.018052     0.217836
 H    -1.015521    -0.228027     2.661158
 H     0.242279     0.194882     3.843359
 H    -0.017159     1.236355     2.430059
 H     1.832400    -2.717623     2.245121
 H     1.023838    -2.053956     3.688353
 H     0.055767    -2.606763     2.303370
 H     2.563340     0.973677     2.331434
 H     2.496086    -0.266459     3.596504
 H     3.299220    -0.635836     2.071460
 H    -0.127162     2.986163     0.910021
 H     1.161338     4.850983     1.869520
 H     3.665300     4.884395     1.699508
 H     4.834356     2.967128     0.579619
 H     3.546647     1.089072    -0.338876
 H     0.364966    -1.394574    -2.503347
 H    -0.950065    -0.184085    -2.568274
 H     0.264720    -0.256316    -3.860745
 H    -0.392027     2.285172    -2.596459
 H     1.239142     2.878211    -2.180693
 H     0.949331     2.058509    -3.736732
 H     2.464135     0.235176    -3.621354
 H     3.157990     1.236086    -2.341857
 H     2.917397    -0.523629    -2.085198
