   62
scf done: -6531.383899
Br     1.773059     3.323434    -0.409518
Br     1.772800    -3.323534     0.409472
 C    -0.863960     0.842689    -0.215687
 C    -0.864008    -0.842597     0.215705
 C     0.654449    -0.693780     0.134682
 C     1.823914    -1.419710     0.198890
 C     3.077686    -0.724069     0.087307
 C     4.331587    -1.393585     0.161515
 C     5.529321    -0.703222     0.080406
 C     5.529374     0.702819    -0.080609
 C     4.331690     1.393273    -0.161689
 C     3.077741     0.723851    -0.087465
 C     1.824025     1.419591    -0.198985
 C     0.654494     0.693775    -0.134687
 C    -1.418871     1.064799    -1.617145
 C    -2.759170     0.727420    -1.908195
 C    -3.298511     0.933684    -3.183303
 C    -2.505624     1.477823    -4.205017
 C    -1.171926     1.808342    -3.934645
 C    -0.635189     1.602752    -2.654433
 C    -1.420337     1.822964     0.823170
 C    -0.790324     1.938630     2.083015
 C    -1.264653     2.826607     3.054216
 C    -2.380545     3.634244     2.790273
 C    -3.006122     3.545586     1.540658
 C    -2.529546     2.654644     0.567679
 C    -1.420507    -1.822819    -0.823124
 C    -0.790504    -1.938621    -2.082963
 C    -1.264980    -2.826540    -3.054144
 C    -2.381005    -3.633988    -2.790184
 C    -3.006567    -3.545205    -1.540571
 C    -2.529845    -2.654320    -0.567611
 C    -1.418853    -1.064703     1.617190
 C    -0.635146    -1.602827     2.654370
 C    -1.171803    -1.808461     3.934608
 C    -2.505446    -1.477817     4.205110
 C    -3.298353    -0.933512     3.183500
 C    -2.759091    -0.727204     1.908366
 H     4.330665    -2.478942     0.291048
 H     6.476329    -1.248477     0.142980
 H     6.476421     1.248006    -0.143191
 H     4.330845     2.478634    -0.291207
 H    -3.384037     0.277446    -1.130241
 H    -4.339304     0.656718    -3.380924
 H    -2.923997     1.635778    -5.204452
 H    -0.538133     2.229823    -4.722041
 H     0.408093     1.866604    -2.464640
 H     0.082386     1.319610     2.309870
 H    -0.755048     2.888793     4.021395
 H    -2.751218     4.332188     3.548261
 H    -3.867663     4.181190     1.309370
 H    -3.020330     2.623518    -0.407956
 H     0.082302    -1.319746    -2.309827
 H    -0.755381    -2.888842    -4.021321
 H    -2.751798    -4.331878    -3.548166
 H    -3.868207    -4.180668    -1.309266
 H    -3.020623    -2.623093     0.408026
 H     0.408094    -1.866782     2.464468
 H    -0.537997    -2.230078     4.721919
 H    -2.923762    -1.635810     5.204565
 H    -4.339102    -0.656445     3.381226
 H    -3.383973    -0.277107     1.130495
