   62
scf done: -1979.834557
 I     3.561675     1.564333    -0.237245
 I    -3.561545     1.564404     0.237893
 C     0.849077    -1.041214    -0.185271
 C    -0.849068    -1.041231     0.185123
 C    -0.700544     0.477664     0.102570
 C    -1.430828     1.645546     0.128741
 C    -0.729174     2.899884     0.051168
 C    -1.397236     4.156507     0.092202
 C    -0.705596     5.355471     0.045805
 C     0.705777     5.355460    -0.045409
 C     1.397396     4.156483    -0.091780
 C     0.729305     2.899875    -0.050746
 C     1.430940     1.645536    -0.128310
 C     0.700654     0.477658    -0.102096
 C     1.113101    -1.587065    -1.583273
 C     1.653896    -0.789597    -2.608774
 C     1.896382    -1.318336    -3.886065
 C     1.598429    -2.657739    -4.165940
 C     1.047545    -3.463395    -3.157871
 C     0.804865    -2.931953    -1.885803
 C     1.794835    -1.605417     0.881176
 C     1.863402    -0.987879     2.151238
 C     2.725702    -1.462373     3.145527
 C     3.554795    -2.565968     2.895684
 C     3.511276    -3.180392     1.638028
 C     2.645024    -2.704336     0.642361
 C    -1.794850    -1.604988    -0.881538
 C    -1.863530    -0.986898    -2.151338
 C    -2.725837    -1.461041    -3.145774
 C    -3.554845    -2.564809    -2.896362
 C    -3.511215    -3.179764    -1.638984
 C    -2.644931    -2.704064    -0.643156
 C    -1.113171    -1.587616     1.582893
 C    -0.804882    -2.932575     1.885001
 C    -1.047739    -3.464480     3.156842
 C    -1.598854    -2.659217     4.165103
 C    -1.896851    -1.319736     3.885650
 C    -1.654182    -0.790531     2.608583
 H    -2.488559     4.158073     0.169466
 H    -1.254854     6.301483     0.081869
 H     1.255053     6.301462    -0.081482
 H     2.488720     4.158023    -0.169028
 H     1.887795     0.260267    -2.413512
 H     2.319141    -0.673231    -4.663469
 H     1.785327    -3.070379    -5.162712
 H     0.793799    -4.508419    -3.364142
 H     0.350427    -3.567424    -1.118949
 H     1.228188    -0.124398     2.368318
 H     2.750283    -0.962813     4.119560
 H     4.233103    -2.936437     3.671312
 H     4.162417    -4.033322     1.418578
 H     2.649644    -3.186659    -0.337906
 H    -1.228385    -0.123289    -2.368085
 H    -2.750510    -0.961090    -4.119605
 H    -4.233183    -2.934959    -3.672120
 H    -4.162249    -4.032854    -1.419851
 H    -2.649429    -3.186847     0.336887
 H    -0.350271    -3.567751     1.118003
 H    -0.793949    -4.509556     3.362787
 H    -1.785894    -3.072230     5.161693
 H    -2.319784    -0.674928     4.663205
 H    -1.888126     0.259387     2.413640
