   58
scf done: -1977.492059
 I     3.562348     1.708156    -0.131388
 I    -3.559926     1.712966     0.131507
 C     0.872857    -0.837340     0.033356
 C    -0.873603    -0.836368    -0.033023
 C    -0.706864     0.667933     0.028741
 C    -1.436117     1.833326     0.060645
 C    -0.728829     3.086310     0.034108
 C    -1.396980     4.342748     0.065563
 C    -0.702742     5.540882     0.033646
 C     0.710406     5.539958    -0.032265
 C     1.403003     4.340887    -0.064500
 C     0.733143     3.085367    -0.033307
 C     1.438743     1.831408    -0.059954
 C     0.707822     0.667038    -0.027853
 C     1.450081    -1.417579     1.310915
 C     1.404474    -0.927426     2.617705
 C     2.016294    -1.667361     3.646393
 C     2.666836    -2.879479     3.364198
 C     2.757559    -3.351566     2.044750
 C     2.165127    -2.606247     1.016925
 C     2.244873    -2.746054    -0.442751
 C     2.928048    -3.679224    -1.233029
 C     2.986005    -3.479336    -2.621457
 C     2.388416    -2.350519    -3.204335
 C     1.685323    -1.422135    -2.415091
 C     1.586500    -1.636492    -1.037690
 C    -1.588634    -1.634871     1.037558
 C    -1.687011    -1.421176     2.415129
 C    -2.391567    -2.348865     3.203850
 C    -2.991026    -3.476391     2.620348
 C    -2.933496    -3.675540     1.231815
 C    -2.248853    -2.743000     0.442048
 C    -2.168924    -2.602510    -1.017564
 C    -2.762773    -3.346262    -2.045717
 C    -2.671281    -2.873690    -3.364920
 C    -2.018584    -1.662576    -3.646525
 C    -1.405399    -0.924250    -2.617513
 C    -1.451817    -1.414951    -1.310925
 H    -2.490153     4.344269     0.115749
 H    -1.251165     6.487715     0.059619
 H     1.260070     6.486071    -0.057928
 H     2.496175     4.340850    -0.114741
 H     0.926981     0.032530     2.839456
 H     1.990783    -1.289108     4.673343
 H     3.133104    -3.447093     4.176161
 H     3.310595    -4.270553     1.822591
 H     3.433877    -4.535985    -0.774886
 H     3.523225    -4.196220    -3.251056
 H     2.473247    -2.185502    -4.283160
 H     1.245534    -0.536372    -2.879159
 H    -1.245736    -0.536430     2.879675
 H    -2.476107    -2.184334     4.282775
 H    -3.529315    -4.192772     3.249604
 H    -3.440720    -4.531199     0.773157
 H    -3.317463    -4.264340    -1.823948
 H    -3.138609    -3.440052    -4.177148
 H    -1.992454    -1.283849    -4.673292
 H    -0.926272     0.034965    -2.838788
