   54
scf done: -1305.919689
 C    -0.000462     0.652785     0.865568
 C     0.000146     0.654566    -0.865415
 C     0.000539    -1.916581     0.680596
 C     0.000952    -1.914882    -0.684795
 C    -1.230075    -0.021147     1.461250
 C    -2.313401     0.638114     2.052407
 H    -2.326546     1.732331     2.097199
 C    -3.382933    -0.107511     2.579129
 H    -4.226342     0.411842     3.046012
 C    -3.376100    -1.506561     2.506372
 H    -4.213340    -2.080698     2.916687
 C    -2.298035    -2.179463     1.904144
 H    -2.291977    -3.271942     1.833344
 C    -1.231408    -1.441953     1.385744
 C     1.229435    -0.020255     1.461795
 C     2.312088     0.639828     2.053272
 H     2.324340     1.734056     2.098140
 C     3.382066    -0.104981     2.580227
 H     4.224937     0.415000     3.047386
 C     3.376357    -1.504039     2.507397
 H     4.213980    -2.077516     2.917858
 C     2.298967    -2.177756     1.904886
 H     2.293751    -3.270237     1.834071
 C     1.231870    -1.441047     1.386297
 C    -1.229383    -0.018181    -1.462581
 C    -2.312933     0.642138    -2.052153
 H    -2.326027     1.736437    -2.095154
 C    -3.382734    -0.102568    -2.579597
 H    -4.226309     0.417567    -3.045303
 C    -3.375998    -1.501741    -2.509046
 H    -4.213495    -2.075119    -2.919899
 C    -2.297770    -2.175695    -1.908357
 H    -2.291760    -3.268279    -1.839245
 C    -1.230716    -1.439082    -1.389461
 C     1.230303    -0.017406    -1.462018
 C     2.313535     0.643671    -2.051370
 H     2.325871     1.737980    -2.094371
 C     3.383958    -0.100291    -2.578559
 H     4.227288     0.420411    -3.044081
 C     3.378162    -1.499482    -2.508000
 H     4.216181    -2.072272    -2.918609
 C     2.300245    -2.174174    -1.907606
 H     2.294937    -3.266759    -1.838536
 C     1.232583    -1.438286    -1.388906
 C    -0.000915     2.161750     0.701711
 C    -0.002056     3.343665     1.446155
 H    -0.002511     3.355575     2.541286
 C    -0.002508     4.545380     0.708058
 H    -0.003346     5.502706     1.240123
 C    -0.001956     4.546820    -0.699921
 H    -0.002403     5.505219    -1.230064
 C    -0.000902     3.346651    -1.440519
 H    -0.000499     3.361025    -2.535630
 C    -0.000374     2.163160    -0.698574
