   23
scf done:  -739.248280
 C     7.887293     5.699995     9.893361
 C     8.075818     6.990331    10.381471
 C     7.050558     7.936239    10.240545
 C     5.853895     7.559892     9.608919
 C     5.711058     6.260406     9.137623
 N     6.719977     5.354899     9.284160
 C     6.529610     3.979529     8.767710
 C     7.567051     2.834827     8.850572
 C     5.418270     2.988568     9.216582
 C     6.245124     3.598598     7.287042
 C     6.292497     2.285421     8.130548
 I     6.028019     0.308231     7.392030
 H     8.639593     4.912785     9.967415
 H     9.022292     7.240959    10.866316
 H     7.180451     8.954502    10.617626
 H     5.030370     8.266021     9.478840
 H     4.811041     5.897416     8.637442
 H     7.773331     2.413165     9.846993
 H     8.468536     2.925913     8.224259
 H     4.383779     3.226781     8.922950
 H     5.494371     2.591277    10.240195
 H     7.066544     3.751323     6.570508
 H     5.260321     3.873822     6.877795
