   28
scf done:  -442.163157
 B     0.376256     6.648871     5.265569
 H     0.863109     6.070413     6.194431
 B    -1.994998     7.599991     3.934791
 H    -3.181781     7.667955     3.785630
 B    -1.213079     6.165683     4.640050
 H    -1.841447     5.209355     4.994915
 B    -0.936840     8.105641     2.571567
 H    -1.368919     8.469875     1.514776
 B     0.269980     5.892373     3.660364
 H     0.630716     4.801636     3.319385
 B     0.561458     8.413789     4.999897
 H     1.182029     9.118069     5.743646
 B     1.409216     7.251255     3.949001
 H     2.582369     7.047967     3.844021
 B     0.624624     8.690204     3.240822
 H     1.237215     9.515008     2.630022
 B    -1.029715     7.754101     5.422194
 H    -1.564289     7.978215     6.470319
 B    -0.894921     8.980746     4.118440
 H    -1.329234    10.092660     4.215637
 C     0.510404     7.170034     2.528698
 C    -1.195397     6.463930     2.982868
 N     1.035655     6.842370     1.280558
 N    -1.747511     5.663030     1.967478
 H    -1.885715     4.695567     2.269746
 H    -2.621180     6.049607     1.601766
 H     0.492749     7.207271     0.496176
 H     1.232345     5.846882     1.164533
