   55
scf done: -1020.199279
 B    -2.286096    -0.029142    -1.462313
 H    -1.524200    -0.108631    -2.377706
 B    -3.066841     1.455236    -0.940512
 H    -2.897261     2.448644    -1.583875
 B    -2.962960     1.540032     0.848031
 H    -2.772343     2.590795     1.385954
 B    -2.161202     0.094720     1.480190
 H    -1.319872     0.113334     2.324459
 B    -3.057925    -1.344363     1.016933
 H    -2.907424    -2.350260     1.646671
 B    -3.119247    -1.423459    -0.777817
 H    -3.017757    -2.479948    -1.329344
 B    -4.029200     0.011730    -1.368775
 H    -4.673864    -0.036580    -2.377060
 B    -3.897197     0.160635     1.523750
 H    -4.458108     0.244181     2.578738
 B    -4.511785    -0.800963     0.146099
 H    -5.530971    -1.425163     0.223068
 B    -4.467789     0.994525     0.050024
 H    -5.452778     1.675328     0.069460
 N    -0.327080     1.188021    -0.180003
 N    -0.380541    -1.203557     0.054722
 C    -1.705783     0.832122    -0.067136
 C    -1.752321    -0.793856     0.045094
 C     0.428533    -0.048885    -0.443537
 H     1.401852    -0.011759     0.071642
 H     0.615528    -0.165462    -1.532919
 C    -0.064330    -2.475164    -0.605972
 H    -0.182606    -2.400881    -1.711249
 H    -0.803623    -3.215961    -0.252238
 C     1.341784    -2.938510    -0.268003
 C     1.789970    -2.944533     1.067223
 H     1.121400    -2.577808     1.853590
 C     3.075703    -3.401933     1.382105
 H     3.412902    -3.401439     2.424004
 C     3.929326    -3.862693     0.367051
 H     4.934211    -4.220357     0.614046
 C     3.491027    -3.858255    -0.964328
 H     4.152716    -4.209872    -1.762675
 C     2.205326    -3.393498    -1.279046
 H     1.867224    -3.383946    -2.321864
 C     0.237389     2.087539     0.841419
 H     0.414359     1.563374     1.804289
 H    -0.525486     2.861485     1.034800
 C     1.521978     2.741056     0.365314
 C     2.627686     2.836006     1.228248
 H     2.567103     2.399421     2.232219
 C     3.801595     3.485101     0.817522
 H     4.654296     3.551193     1.501190
 C     3.883773     4.038448    -0.467584
 H     4.800295     4.541683    -0.792344
 C     2.787060     3.939676    -1.338814
 H     2.846109     4.367797    -2.345019
 C     1.613750     3.296382    -0.925456
 H     0.758065     3.210794    -1.603513
