   72
scf done: -1217.715333
 N     1.659495     0.554235     0.242377
 N    -1.607119     0.534429     0.196091
 C     4.226626    -3.080875     0.427954
 H     3.993833    -4.098004     0.766887
 C     3.180582    -2.261835    -0.027530
 C    -3.460947    -0.924419    -0.520463
 C     3.469971    -0.944155    -0.462572
 C     1.041315     1.789849     0.198494
 C     2.341309    -0.044201    -0.926484
 H     2.723875     0.757563    -1.580597
 H     1.605475    -0.619152    -1.517850
 C     5.557105    -2.631685     0.463836
 B    -1.442944     3.122765    -0.673770
 C    -1.006692     1.773068     0.197606
 B     0.040641     2.181780    -1.132822
 C    -5.744720    -1.180329     0.286321
 H    -6.698752    -0.724222     0.578580
 C     4.802408    -0.462552    -0.415501
 C    -3.301170    -2.330966    -0.475223
 C     5.819328    -1.317853     0.043248
 H     6.848994    -0.941439     0.078597
 C    -2.317490    -0.033404    -0.967877
 H    -1.606139    -0.596890    -1.596787
 H    -2.698655     0.799602    -1.583948
 B     1.491538     3.157293    -0.655532
 B    -0.001435     2.136728     1.540831
 C    -4.699124    -0.343976    -0.134938
 B     0.021659     3.972553    -1.200509
 C    -4.376729    -3.130280    -0.047423
 H    -4.246135    -4.218937    -0.016779
 C    -5.606739    -2.578264     0.339118
 B    -1.462319     3.106910     1.112027
 B     1.468778     3.109068     1.128002
 C     6.673808    -3.539893     0.923568
 H     7.058429    -4.153819     0.087581
 H     6.333345    -4.237708     1.707384
 H     7.525425    -2.964173     1.323197
 C     1.765165    -2.798485    -0.047843
 H     1.694853    -3.746157     0.510376
 H     1.421103    -2.999094    -1.080401
 H     1.050671    -2.082905     0.396148
 B    -0.877241     4.543409     0.246167
 C    -2.008510    -3.002497    -0.889423
 H    -2.041652    -4.081224    -0.665789
 H    -1.133131    -2.579359    -0.367318
 H    -1.818654    -2.898616    -1.974113
 B     0.887375     4.554998     0.263734
 C    -4.922793     1.151367    -0.185675
 H    -5.926115     1.409329     0.189672
 H    -4.845186     1.542551    -1.216999
 H    -4.184059     1.707660     0.417645
 B    -0.004774     3.921112     1.687443
 C    -6.748731    -3.451817     0.804065
 H    -6.985802    -3.271320     1.868521
 H    -6.510795    -4.522332     0.691549
 H    -7.671245    -3.247757     0.231845
 C     5.157210     0.945869    -0.843081
 H     6.221681     1.154918    -0.649451
 H     4.563561     1.707774    -0.307171
 H     4.981891     1.106578    -1.922868
 H     0.043226     1.449771    -2.079093
 H    -2.465400     2.970317     1.753522
 H     0.002524     1.347313     2.443472
 H     1.522655     5.570846     0.290126
 H    -2.426251     3.036636    -1.352144
 H     2.459639     2.977635     1.789695
 H    -1.527238     5.550263     0.250678
 H     0.017382     4.568553    -2.240070
 H     2.492685     3.074146    -1.308530
 H    -0.010716     4.471428     2.751964
 H     2.099635     0.339321     1.137734
 H    -1.885075     0.171180     1.106528
