   50
scf done:  -979.759750
 B     5.737347     3.512812     3.608803
 B     4.198833     4.417894     3.617678
 B     3.587218     4.417834     5.287994
 B     5.744625     5.289420     3.589008
 B     4.409438     5.854210     4.641975
 C     4.423756     3.072397     4.647142
 C     2.686015     1.658508     4.010507
 H     2.049676     2.533701     3.776933
 N     3.892616     1.788379     4.452862
 C     2.080478     0.342524     3.788899
 C     0.757351     0.269541     3.304425
 H     0.206612     1.195504     3.102652
 C     0.152317    -0.973279     3.083055
 H    -0.874416    -1.022635     2.707132
 C     0.865272    -2.152812     3.344230
 H     0.393725    -3.125820     3.171694
 C     2.185029    -2.088201     3.827424
 H     2.737861    -3.011246     4.029894
 C     2.791492    -0.850635     4.049349
 H     3.816485    -0.774253     4.424624
 H     2.424040     4.253654     5.518797
 H     6.045698     2.727133     2.766936
 H     3.459733     4.253807     2.690312
 H     6.105182     5.868710     2.604521
 H     3.797959     6.859618     4.418136
 B     4.756166     3.512808     6.288376
 B     6.294678     4.417894     6.279502
 B     6.906293     4.417839     4.609187
 B     4.748884     5.289416     6.308174
 B     6.084069     5.854212     5.255208
 C     6.069758     3.072398     5.250035
 C     7.807502     1.658512     5.886669
 H     8.443836     2.533706     6.120251
 N     6.600901     1.788381     5.444312
 C     8.413037     0.342529     6.108287
 C     9.736160     0.269548     6.592772
 H    10.286897     1.195512     6.794546
 C    10.341192    -0.973271     6.814151
 H    11.367922    -1.022626     7.190083
 C     9.628240    -2.152805     6.552976
 H    10.099785    -3.125813     6.725520
 C     8.308486    -2.088196     6.069771
 H     7.755656    -3.011242     5.867301
 C     7.702024    -0.850632     5.847837
 H     6.677034    -0.774252     5.472554
 H     8.069471     4.253661     4.378383
 H     4.447816     2.727127     7.130240
 H     7.033778     4.253806     7.206868
 H     4.388325     5.868703     7.292663
 H     6.695546     6.859620     5.479049
