   54
scf done:  -982.162677
 B    -2.173724    -0.399013     1.283835
 B    -3.143560     1.119270     1.315189
 B    -3.108927     1.665072    -0.386546
 B    -2.173933     0.399305    -1.283915
 B    -3.957053    -0.448926     1.371943
 B    -4.554270     0.839908     0.275170
 B    -3.957294     0.449949    -1.371506
 C    -1.788081     0.957369     0.332903
 N    -0.531309     1.504086     0.521883
 H    -1.407155    -0.683316     2.160321
 H    -4.531001     0.793451    -2.365618
 H    -3.019310     1.868275     2.241553
 H    -1.407546     0.683350    -2.160649
 H    -4.530596    -0.792178     2.366236
 H    -2.997780     2.812753    -0.708991
 H    -5.565764     1.453327     0.465533
 C    -0.087778     2.694632    -0.214757
 B    -3.109487    -1.664390     0.386726
 B    -3.144429    -1.118567    -1.315011
 B    -4.554706    -0.838604    -0.274535
 C    -1.788540    -0.957278    -0.333155
 N    -0.532150    -1.504587    -0.522506
 C    -0.088614    -2.695077     0.214149
 H    -0.434161    -2.576690     1.255993
 H    -0.568713    -3.615191    -0.177750
 C     1.420157    -2.838774     0.174958
 C     2.014684    -4.038733    -0.250936
 H     1.378195    -4.869372    -0.577965
 C     3.410755    -4.181757    -0.257148
 H     3.859526    -5.123109    -0.590738
 C     4.226963    -3.120074     0.156522
 H     5.316372    -3.229538     0.150192
 C     3.641387    -1.915357     0.578618
 H     4.270877    -1.080878     0.905848
 C     2.247792    -1.776977     0.589232
 H     1.788187    -0.836972     0.911815
 H    -2.998704    -2.812120     0.709123
 H    -3.020759    -1.867604    -2.241422
 H    -5.566518    -1.451599    -0.464582
 H    -0.201508    -1.462134    -1.487918
 C     1.420976     2.838376    -0.175240
 C     2.015419     4.038287     0.250903
 C     3.411492     4.181277     0.257468
 C     4.227779     3.119614    -0.156099
 C     3.642284     1.914952    -0.578461
 C     2.248688     1.776603    -0.589428
 H    -0.200785     1.461944     1.487362
 H    -0.568029     3.614721     0.177007
 H    -0.433094     2.576171    -1.256674
 H     1.378869     4.868905     0.577863
 H     3.860205     5.122589     0.591250
 H     5.317189     3.229053    -0.149485
 H     4.271838     1.080495    -0.905625
 H     1.789124     0.836655    -0.912234
