   68
scf done: -1616.541109
 C     1.569271     0.000597     1.101611
 C     2.463254     0.000878     2.184011
 C     3.888433     0.001067     1.997555
 C     4.441588     0.001021     0.712136
 C     3.516400     0.000813    -0.354891
 C     4.138406     0.000661    -1.623350
 C     3.282715     0.000278    -2.731276
 C     1.855721     0.000072    -2.557221
 C     1.282197     0.000207    -1.285418
 C     2.149124     0.000565    -0.179203
 C     5.761344     0.001068     0.051508
 C     5.582694     0.000865    -1.318261
 C     0.037678     0.000263     1.001820
 C    -0.560440     1.273958     1.608407
 C     0.269929     2.246933     2.199943
 C    -0.212404     3.487391     2.626652
 C    -1.561775     3.811311     2.444847
 C    -2.406697     2.862320     1.875754
 C    -1.946390     1.583091     1.486026
 C    -2.953331     0.677413     0.960709
 C    -2.952964    -0.678327     0.960642
 C    -1.945643    -1.583446     1.486212
 C    -2.405382    -2.862807     1.876107
 C    -1.560077    -3.811238     2.445617
 C    -0.210964    -3.486534     2.627754
 C     0.270845    -2.245910     2.200846
 C    -0.559859    -1.273589     1.608792
 C    -0.182914    -0.000114    -0.832826
 C    -0.768675     1.350420    -1.259451
 C     0.061211     2.456577    -0.965126
 C    -0.317076     3.781763    -1.179674
 C    -1.567279     4.056909    -1.744350
 C    -2.389293     2.988525    -2.083645
 C    -2.028569     1.632661    -1.858676
 C    -3.032153     0.675721    -2.289615
 C    -3.031561    -0.678077    -2.289788
 C    -2.027358    -1.634264    -1.858599
 C    -2.387182    -2.990422    -2.083453
 C    -1.564683    -4.058221    -1.743635
 C    -0.314844    -3.782187    -1.178498
 C     0.062591    -2.456762    -0.964149
 C    -0.767831    -1.351124    -1.259080
 H     2.085121     0.000980     3.205876
 H     4.516467     0.001224     2.888707
 H     3.672538     0.000132    -3.749402
 H     1.223414    -0.000214    -3.443600
 H     6.721907     0.001223     0.559143
 H     1.334150     2.054910     2.287515
 H     0.476591     4.207579     3.065940
 H    -1.947891     4.785504     2.740910
 H    -3.462812     3.090316     1.732591
 H    -3.859007     1.165307     0.598150
 H    -3.858353    -1.166670     0.597991
 H    -3.461343    -3.091380     1.732774
 H    -1.945739    -4.785595     2.741731
 H     0.478314    -4.206208     3.067441
 H     1.334937    -2.053329     2.288725
 H     1.036092     2.272076    -0.523557
 H     0.360396     4.585850    -0.898428
 H    -1.891239     5.081183    -1.921938
 H    -3.359267     3.181890    -2.542387
 H    -3.930703     1.144394    -2.695919
 H    -3.929683    -1.147424    -2.696249
 H    -3.356909    -3.184422    -2.542455
 H    -1.887895    -5.082736    -1.921195
 H     0.362965    -4.585817    -0.896771
 H     1.037194    -2.271592    -0.522292
 H     6.382405     0.000842    -2.053885
