   70
FINAL HEAT OF FORMATION = -1617.779917
 H     6.231365     5.976889    23.026738
 C     7.920294     4.601017    25.405302
 C     8.133871     5.986738    25.503959
 C     7.214383     6.787538    24.803316
 C     7.389782     8.164650    24.874049
 C     6.698853     4.387712    24.515955
 C     6.224912     5.846095    24.118117
 H     6.715820     8.848313    24.357913
 H     6.948547     3.795570    23.623896
 H     5.902261     3.842084    25.041485
 H     5.192769     6.025971    24.450712
 H    12.798091     7.730097    23.118946
 C    10.096229     5.704313    26.931692
 C     9.885739     4.323578    26.845283
 C     8.801548     3.768475    26.084648
 C     8.475539     8.719437    25.631076
 C     9.369842     7.898842    26.309643
 C     9.186074     6.518414    26.239999
 C    11.156003     6.562871    27.623330
 C    11.129879     6.390294    29.148855
 C    10.261272     5.462510    29.754028
 C    10.077516     5.408432    31.137518
 C    10.748473     6.315317    31.965896
 C    11.634710     7.222257    31.391693
 C    11.878972     7.250198    30.000492
 C    12.873480     8.202074    29.536542
 C    13.637607     8.144903    28.417655
 C    13.661640     7.117164    27.391084
 C    14.868289     6.981963    26.668665
 C    15.039736     5.998132    25.698527
 C    13.982501     5.121291    25.431998
 C    12.762989     5.277992    26.094780
 C    12.555694     6.283891    27.058218
 C    10.598287     8.212604    27.150586
 C    10.058071     8.927456    28.389494
 C     8.970912     8.266581    29.005225
 C     8.399136     8.693424    30.201839
 C    12.693461     8.376188    23.988582
 C    11.760785     8.057983    24.973487
 C    11.597825     8.811495    26.158623
 H    10.553969     3.630537    27.356236
 H     8.695914     2.683594    26.053787
 H     9.667278     4.802745    29.128659
 H     9.380567     4.684325    31.557730
 H    10.583724     6.313113    33.042393
 H    12.175720     7.928331    32.021087
 H    13.080111     9.019723    30.227790
 H    14.396236     8.919779    28.303244
 H    15.682819     7.668081    26.899340
 H    15.982231     5.915184    25.159338
 H    14.087142     4.340127    24.679842
 H    11.935275     4.637609    25.806065
 H     8.577478     7.364085    28.544139
 H     7.588106     8.118227    30.645000
 H    11.148008     7.172957    24.824477
 H    14.224777     9.792230    23.384717
 C     8.882017     9.853530    30.817301
 C     9.910587    10.554423    30.200168
 C    10.517154    10.125143    28.990609
 C    11.565997    10.999799    28.497604
 C    12.330103    10.946414    27.380657
 C    12.373343     9.990835    26.287768
 C    13.303136    10.310393    25.263768
 C    13.486602     9.519068    24.137162
 H     8.589661     9.801467    25.661634
 H     8.454659    10.210073    31.753344
 H    10.279059    11.475934    30.651493
 H    11.746747    11.861560    29.143724
 H    13.036062    11.770782    27.259115
 H    13.892819    11.219498    25.383348
