   66
FINAL HEAT OF FORMATION = -1540.341915
 C     8.107498    12.029879    17.377389
 C     7.981706    11.472204    18.641724
 C     7.495818    11.892189    21.101799
 H     8.318094    11.383505    16.525819
 H     8.091971    10.397060    18.780860
 H     7.582352    10.836122    21.356537
 C     7.706988    14.281069    18.212549
 C     7.968128    13.426102    17.146625
 C     7.693103    12.306282    19.755941
 C     7.181026    12.826213    22.080229
 C     7.050666    14.212206    21.789975
 C     7.255633    14.637494    20.491257
 C     7.567951    13.701094    19.493272
 C     7.536387    15.800599    18.244954
 C     6.386268    16.287699    17.342525
 C     5.665624    15.401315    16.521964
 C     4.503838    15.785309    15.847316
 C     4.004627    17.083573    15.998117
 C     4.716843    17.987988    16.780129
 C     5.926848    17.634587    17.416935
 C     6.601326    18.692333    18.149605
 C     7.931855    18.817467    18.374735
 C     8.984278    17.920555    17.924727
 C     8.827186    16.513993    17.777622
 C     7.172974    16.048209    19.911485
 C     5.694588    16.434861    20.063724
 C     4.796609    15.485167    19.526765
 C     3.419551    15.688612    19.458766
 C     2.873719    16.865958    19.981906
 C     3.728943    17.788235    20.573129
 C     5.135768    17.604192    20.636694
 C     5.855276    18.669196    21.316329
 C     7.165793    18.813035    21.628600
 C     8.317485    17.967300    21.360550
 C     8.333768    16.770655    20.604516
 H     8.072887    13.803466    16.130101
 H     7.022843    12.486719    23.103131
 H     6.790597    14.916241    22.577359
 H     5.970051    14.361512    16.459042
 H     3.969768    15.054167    15.241205
 H     3.076045    17.384484    15.514932
 H     4.351095    19.007162    16.903700
 H     5.960975    19.516613    18.465017
 H     8.271845    19.734002    18.857229
 H     5.191732    14.559825    19.115284
 H     2.786377    14.933657    18.995269
 H     1.801627    17.053676    19.940977
 H     3.317845    18.696759    21.014338
 H     5.202539    19.473575    21.662292
 H     7.415619    19.715213    22.190358
 H     9.587369    15.157127    19.921173
 C    10.230995    18.513952    17.628514
 C    11.292653    17.775349    17.114789
 C    11.118643    16.403145    16.904043
 C     9.910568    15.791128    17.245608
 C     9.537891    18.423014    21.927223
 C    10.742296    17.748574    21.765367
 C    10.754166    16.560952    21.024181
 C     9.564304    16.089238    20.478657
 H    10.338232    19.586223    17.790723
 H    12.238790    18.260647    16.880453
 H    11.930080    15.796698    16.503503
 H     9.836081    14.714377    17.138464
 H     9.510496    19.342552    22.512063
 H    11.655361    18.138028    22.213018
 H    11.675483    16.001486    20.872581
