  212
scf done: -3354.118581
 C     0.832112    -0.010849     0.007438
 C    -0.832112     0.010849    -0.007438
 C     1.457400     0.315063    -1.390520
 C    -1.457400    -0.315063     1.390520
 C    -1.418750     1.401324    -0.421454
 C     1.418750    -1.401324     0.421454
 C     1.421008     1.041900     1.002410
 C    -1.421008    -1.041900    -1.002410
 C     1.035933     1.078036     2.357060
 C    -1.035933    -1.078036    -2.357060
 C    -1.055826    -1.437531     2.149392
 C     1.055826     1.437531    -2.149392
 C     1.027085    -2.596526    -0.212401
 C    -1.027085     2.596526     0.212401
 C     2.462494     1.898507     0.610040
 C    -2.462494    -1.898507    -0.610040
 C    -2.568710     0.404241     1.850235
 C     2.568710    -0.404241    -1.850235
 C     2.502615    -1.475179     1.313164
 C    -2.502615     1.475179    -1.313164
 C     1.586142     1.992137     3.268822
 C    -1.586142    -1.992137    -3.268822
 C    -1.697942    -1.799615     3.339912
 C     1.697942     1.799615    -3.339912
 C     1.647173    -3.826855     0.058390
 C    -1.647173     3.826855    -0.058390
 C     3.077511     2.795336     1.503372
 C    -3.077511    -2.795336    -1.503372
 C    -3.272450     0.045746     3.018172
 C     3.272450    -0.045746    -3.018172
 C     3.174653    -2.681205     1.585101
 C    -3.174653     2.681205    -1.585101
 C     2.604149     2.855953     2.822784
 C    -2.604149    -2.855953    -2.822784
 C    -2.819597    -1.051883     3.756554
 C     2.819597     1.051883    -3.756554
 C     2.726791    -3.853700     0.959009
 C    -2.726791     3.853700    -0.959009
 H     0.292683     0.377967     2.713106
 H    -0.292683    -0.377967    -2.713106
 H    -0.225780    -2.035260     1.802471
 H     0.225780     2.035260    -1.802471
 H     0.227501    -2.573130    -0.940334
 H    -0.227501     2.573130     0.940334
 H     2.828843     1.855988    -0.409151
 H    -2.828843    -1.855988     0.409151
 H    -2.927391     1.252164     1.278265
 H     2.927391    -1.252164    -1.278265
 H     2.859562    -0.567584     1.787549
 H    -2.859562     0.567584    -1.787549
 C     1.117529     1.957448     4.735217
 C    -1.117529    -1.957448    -4.735217
 C    -1.230460    -3.001729     4.177980
 C     1.230460     3.001729    -4.177980
 C     1.120039    -5.092538    -0.640459
 C    -1.120039     5.092538     0.640459
 C     4.295589     3.601392     1.018963
 C    -4.295589    -3.601392    -1.018963
 C    -4.521821     0.855430     3.400169
 C     4.521821    -0.855430    -3.400169
 C     4.394768    -2.653415     2.521199
 C    -4.394768     2.653415    -2.521199
 H     3.048344     3.561139     3.518614
 H    -3.048344    -3.561139    -3.518614
 H    -3.340555    -1.342451     4.666116
 H     3.340555     1.342451    -4.666116
 H     3.226400    -4.795037     1.165812
 H    -3.226400     4.795037    -1.165812
 C     5.129505    -0.396005    -4.740200
 C    -5.129505     0.396005     4.740200
 C    -4.976708     4.059452    -2.768079
 C     4.976708    -4.059452     2.768079
 C     4.773460     4.626805     2.066306
 C    -4.773460    -4.626805    -2.066306
 C     5.585205    -0.674221    -2.286499
 C    -5.585205     0.674221     2.286499
 C    -5.494917     1.771264    -1.876465
 C     5.494917    -1.771264     1.876465
 C     5.447037     2.598078     0.744667
 C    -5.447037    -2.598078    -0.744667
 C     4.162454    -2.357677    -3.516205
 C    -4.162454     2.357677     3.516205
 C    -3.996506     2.042895    -3.886805
 C     3.996506    -2.042895     3.886805
 C     3.973827     4.360141    -0.291592
 C    -3.973827    -4.360141     0.291592
 C     1.005412     2.558066    -5.645154
 C    -1.005412    -2.558066     5.645154
 C    -1.950518     6.343954     0.294478
 C     1.950518    -6.343954    -0.294478
 C     1.615452     3.179012     5.534606
 C    -1.615452    -3.179012    -5.534606
 C    -0.089084     3.597900    -3.648977
 C     0.089084    -3.597900     3.648977
 C     0.345276     5.330243     0.199951
 C    -0.345276    -5.330243    -0.199951
 C    -0.428067     1.924147     4.816008
 C     0.428067    -1.924147    -4.816008
 C     2.321789     4.100698    -4.141460
 C    -2.321789    -4.100698     4.141460
 C    -1.145917     4.893338     2.175837
 C     1.145917    -4.893338    -2.175837
 C     1.676728     0.670007     5.390829
 C    -1.676728    -0.670007    -5.390829
 H     0.670349     3.413861    -6.248983
 H    -0.670349    -3.413861     6.248983
 H    -1.537061     7.215819     0.820100
 H     1.537061    -7.215819    -0.820100
 H     1.213793     3.138282     6.556554
 H    -1.213793    -3.138282    -6.556554
 H     1.924990     2.166087    -6.099384
 H    -1.924990    -2.166087     6.099384
 H    -2.999761     6.231247     0.602270
 H     2.999761    -6.231247    -0.602270
 H     2.711465     3.200702     5.610663
 H    -2.711465    -3.200702    -5.610663
 H     0.238866     1.774421    -5.702984
 H    -0.238866    -1.774421     5.702984
 H    -1.927157     6.560469    -0.782811
 H     1.927157    -6.560469     0.782811
 H     1.281514     4.120035     5.075038
 H    -1.281514    -4.120035    -5.075038
 H     2.022054     4.957404    -4.762877
 H    -2.022054    -4.957404     4.762877
 H    -0.771538     5.797000     2.679150
 H     0.771538    -5.797000    -2.679150
 H     1.334031     0.588631     6.433069
 H    -1.334031    -0.588631    -6.433069
 H     2.478188     4.457516    -3.114773
 H    -2.478188    -4.457516     3.114773
 H    -0.509219     4.052769     2.477205
 H     0.509219    -4.052769    -2.477205
 H     1.338918    -0.221094     4.845917
 H    -1.338918     0.221094    -4.845917
 H     3.281472     3.723311    -4.520433
 H    -3.281472    -3.723311     4.520433
 H    -2.166748     4.697765     2.530426
 H     2.166748    -4.697765    -2.530426
 H     2.775303     0.674657     5.387572
 H    -2.775303    -0.674657    -5.387572
 H    -0.408023     4.424347    -4.299856
 H     0.408023    -4.424347     4.299856
 H     0.761396     6.207770     0.717484
 H    -0.761396    -6.207770    -0.717484
 H    -0.742728     1.886362     5.869431
 H     0.742728    -1.886362    -5.869431
 H    -0.891150     2.848737    -3.630286
 H     0.891150    -2.848737     3.630286
 H     0.405361     5.509304    -0.882488
 H    -0.405361    -5.509304     0.882488
 H    -0.864008     2.821816     4.359896
 H     0.864008    -2.821816    -4.359896
 H     0.018396     3.995013    -2.631974
 H    -0.018396    -3.995013     2.631974
 H     0.971525     4.462475     0.439528
 H    -0.971525    -4.462475    -0.439528
 H    -0.851899     1.048567     4.310911
 H     0.851899    -1.048567    -4.310911
 H     6.008512    -1.011320    -4.976806
 H    -6.008512     1.011320     4.976806
 H    -5.834720     3.987939    -3.450765
 H     5.834720    -3.987939     3.450765
 H     5.626098     5.192553     1.665988
 H    -5.626098    -5.192553    -1.665988
 H     4.410427    -0.502269    -5.564697
 H    -4.410427     0.502269     5.564697
 H    -4.234284     4.727116    -3.227545
 H     4.234284    -4.727116     3.227545
 H     3.978881     5.343708     2.317110
 H    -3.978881    -5.343708    -2.317110
 H     5.456737     0.652384    -4.698836
 H    -5.456737    -0.652384     4.698836
 H    -5.328726     4.522736    -1.835740
 H     5.328726    -4.522736     1.835740
 H     5.103837     4.137922     2.993347
 H    -5.103837    -4.137922    -2.993347
 H     6.490064    -1.253217    -2.523335
 H    -6.490064     1.253217     2.523335
 H    -6.376731     1.719742    -2.532081
 H     6.376731    -1.719742     2.532081
 H     6.345551     3.130656     0.399296
 H    -6.345551    -3.130656    -0.399296
 H     5.867496     0.383161    -2.187484
 H    -5.867496    -0.383161     2.187484
 H    -5.808253     2.187224    -0.909018
 H     5.808253    -2.187224     0.909018
 H     5.703282     2.041770     1.657043
 H    -5.703282    -2.041770    -1.657043
 H     5.204642    -1.015964    -1.315283
 H    -5.204642     1.015964     1.315283
 H    -5.135877     0.747830    -1.705494
 H     5.135877    -0.747830     1.705494
 H     5.160479     1.871097    -0.026810
 H    -5.160479    -1.871097     0.026810
 H     5.059755    -2.940826    -3.770177
 H    -5.059755     2.940826     3.770177
 H    -4.870671     2.002236    -4.553127
 H     4.870671    -2.002236     4.553127
 H     4.873536     4.879347    -0.652608
 H    -4.873536    -4.879347     0.652608
 H     3.759139    -2.750140    -2.574070
 H    -3.759139     2.750140     2.574070
 H    -3.610508     1.022893    -3.772611
 H     3.610508    -1.022893     3.772611
 H     3.638624     3.679578    -1.084174
 H    -3.638624    -3.679578     1.084174
 H     3.411302    -2.518756    -4.300632
 H    -3.411302     2.518756     4.300632
 H    -3.219951     2.647685    -4.374369
 H     3.219951    -2.647685     4.374369
 H     3.187743     5.108523    -0.129371
 H    -3.187743    -5.108523     0.129371
