   66
FINAL HEAT OF FORMATION = -2159.406024
Cl    14.209290     3.577708     8.481068
Cl    20.259775     5.521455     8.894487
 C    18.299469     3.624969     8.452553
 C    18.838388     2.201118     8.165034
 C    17.260130     1.691327     8.415923
 C    16.946987     3.195895     8.400864
 C    15.900690     4.086214     8.462523
 C    16.175007     5.487044     8.579971
 C    15.138057     6.457376     8.614117
 C    15.420079     7.801979     8.758852
 C    16.761094     8.231517     8.880926
 C    17.794487     7.312272     8.854624
 C    17.547108     5.921859     8.700759
 C    18.606792     4.951075     8.649886
 C    19.866614     1.653413     9.141161
 C    20.238647     2.406179    10.267638
 C    21.141802     1.911970    11.214977
 C    21.702444     0.640702    11.055152
 C    21.332358    -0.131749     9.947336
 C    20.420864     0.364319     9.010338
 C    19.359631     2.201818     6.628030
 C    18.324212     2.789717     5.635895
 C    20.602893     3.119869     6.578465
 C    19.820758     0.847185     6.031218
 C    16.669949     0.777057     7.347199
 C    15.585445     1.155741     6.536794
 C    14.999232     0.258620     5.635461
 C    15.483224    -1.048691     5.517731
 C    16.570164    -1.441514     6.307016
 C    17.150499    -0.539524     7.204368
 C    16.819757     1.063162     9.869304
 C    16.756464     2.149574    10.964720
 C    15.388501     0.468829     9.737812
 C    17.699417    -0.082130    10.427876
 H    14.109583     6.118079     8.524700
 H    14.607707     8.526497     8.778614
 H    16.983716     9.290864     8.994956
 H    18.823514     7.647331     8.943418
 H    19.801864     3.388753    10.415357
 H    21.403452     2.524436    12.076781
 H    22.409050     0.252330    11.786996
 H    21.738594    -1.134379     9.818113
 H    20.102851    -0.285782     8.201926
 H    17.904910     3.743946     5.975148
 H    18.841964     2.975563     4.683955
 H    17.501414     2.098458     5.434067
 H    21.324549     2.868446     7.365782
 H    21.100584     2.999023     5.605513
 H    20.328799     4.174291     6.677092
 H    19.072994     0.054371     6.106590
 H    20.004818     1.014187     4.960246
 H    20.766707     0.503680     6.465093
 H    15.195624     2.166291     6.601054
 H    14.158531     0.587902     5.025769
 H    15.025441    -1.748680     4.820241
 H    16.972428    -2.450854     6.225914
 H    17.997058    -0.869848     7.798621
 H    17.703824     2.691141    11.062677
 H    15.952797     2.869560    10.774153
 H    16.548541     1.663813    11.928761
 H    14.689761     1.159141     9.256315
 H    15.389840    -0.469598     9.171281
 H    15.013014     0.255720    10.749393
 H    17.121744    -0.575266    11.224458
 H    17.931682    -0.851333     9.685635
 H    18.633317     0.271966    10.870804
