   66
FINAL HEAT OF FORMATION = -1141.191189
 N     5.769247     7.746655     4.056341
 C     5.611846     7.123296     2.760247
 C     4.830097     8.662744     4.543361
 C     5.043990     5.837832     2.663459
 C     4.898926     5.265577     1.387850
 H     4.445708     4.275304     1.312335
 C     6.089393     7.788534     1.604790
 C     5.940146     7.167300     0.360134
 H     6.301976     7.685282    -0.529722
 C     5.330844     5.909616     0.224437
 C     4.618319     5.034252     3.870921
 H     4.902153     5.538352     4.798971
 H     5.086032     4.039794     3.846206
 H     3.528986     4.881675     3.879232
 B     3.188133     8.157011     4.667208
 H     2.893348     7.110492     4.204189
 B     5.023931    10.332589     4.576175
 H     6.020677    10.744144     4.082252
 C     5.187616     5.259221    -1.135114
 H     6.115546     4.743741    -1.426668
 H     4.972068     6.005589    -1.911193
 H     4.380636     4.515617    -1.140228
 C     6.749191     9.146740     1.679974
 H     6.024980     9.929529     1.939131
 H     7.195997     9.404206     0.712190
 H     7.548508     9.183657     2.434787
 B     3.724636     9.542911     3.644705
 H     3.754871     9.389067     2.469951
 B     2.232136     9.660642     4.589079
 H     1.182574     9.698040     4.034754
 B     3.395109    11.025681     4.580641
 H     3.177027    12.052993     4.025432
 H     6.721412     8.055392     4.250330
 N     4.270511     6.910595     6.732225
 C     4.931606     6.754683     8.014797
 C     3.935177     8.164976     6.211381
 C     6.325752     6.563757     8.066252
 C     6.926515     6.390772     9.326139
 H     8.007633     6.248974     9.371455
 C     4.144931     6.700162     9.190293
 C     4.787902     6.506672    10.416944
 H     4.182959     6.464235    11.324191
 C     6.182231     6.364121    10.508757
 C     7.185455     6.489095     6.825859
 H     6.569958     6.424403     5.924364
 H     7.845784     5.612326     6.874847
 H     7.829674     7.376673     6.735600
 B     5.181886     9.345664     6.073816
 H     6.235077     9.095173     6.549820
 B     2.383733     8.821830     6.137062
 H     1.525212     8.172466     6.635198
 C     6.845651     6.148473    11.851208
 H     6.528994     5.194214    12.297791
 H     6.576271     6.943803    12.560157
 H     7.938120     6.130910    11.756915
 C     2.636832     6.821510     9.144342
 H     2.318321     7.836927     8.875565
 H     2.207386     6.579507    10.123852
 H     2.187017     6.139031     8.407954
 B     3.698115     9.586118     7.064703
 H     3.799778     9.514903     8.242687
 B     4.346757    10.920557     6.098485
 H     4.818879    11.867121     6.638224
 B     2.587033    10.581051     6.085446
 H     1.791405    11.287021     6.614657
 H     3.530188     6.229000     6.567356
