   62
FINAL HEAT OF FORMATION = -6534.197650
Br     6.043488     2.912254     5.788373
Br     0.440881    -0.633645     6.635583
 C     4.054255     0.853657     3.598087
 C     2.494585     0.117842     3.759466
 C     2.646348     0.533102     5.228887
 C     2.012999     0.442800     6.441378
 C     2.561725     1.157951     7.557079
 C     1.933350     1.165475     8.830020
 C     2.449310     1.898017     9.881599
 C     3.631005     2.654751     9.704979
 C     4.277081     2.666321     8.482402
 C     3.779080     1.932602     7.373617
 C     4.429999     1.928466     6.093767
 C     3.870444     1.212177     5.069600
 C     5.088164    -0.220078     3.325802
 C     5.063664    -0.909155     2.096792
 C     5.934828    -1.971033     1.849289
 C     6.847746    -2.375056     2.832876
 C     6.875099    -1.706024     4.060004
 C     6.000373    -0.638688     4.303226
 C     4.146776     2.072956     2.686839
 C     3.314246     3.185835     2.922614
 C     3.359036     4.306994     2.091455
 C     4.248549     4.349042     1.009959
 C     5.099400     3.263229     0.781066
 C     5.050839     2.138020     1.612948
 C     2.441106    -1.393467     3.527246
 C     3.054100    -2.259975     4.451900
 C     3.079241    -3.641745     4.248804
 C     2.480459    -4.199548     3.112746
 C     1.843565    -3.355945     2.197603
 C     1.817226    -1.972015     2.405315
 C     1.424248     0.833147     2.947047
 C     0.244400     1.326322     3.522326
 C    -0.748511     1.919083     2.729928
 C    -0.578669     2.031231     1.346496
 C     0.598185     1.549430     0.758656
 C     1.586322     0.961884     1.551290
 H     1.021784     0.585887     8.954888
 H     1.940740     1.893599    10.844255
 H     4.033579     3.232941    10.534606
 H     5.184729     3.248093     8.345234
 H     4.333918    -0.632141     1.337876
 H     5.887553    -2.494843     0.895426
 H     7.522253    -3.209738     2.646258
 H     7.572395    -2.015648     4.837392
 H     6.014267    -0.138662     5.268779
 H     2.611386     3.165587     3.752917
 H     2.694187     5.146789     2.288574
 H     4.283264     5.222817     0.360479
 H     5.811935     3.288234    -0.042736
 H     5.732353     1.311700     1.429562
 H     3.524526    -1.844303     5.339586
 H     3.569839    -4.282187     4.980549
 H     2.501793    -5.276435     2.949152
 H     1.355168    -3.770919     1.316240
 H     1.296093    -1.347268     1.685654
 H     0.090713     1.241402     4.594360
 H    -1.658298     2.289944     3.200589
 H    -1.350458     2.492807     0.731706
 H     0.753970     1.639181    -0.315701
 H     2.503769     0.612047     1.081488
