   54
FINAL HEAT OF FORMATION = -1307.979872
 C     9.143009     5.485865    10.804463
 C     7.710723     6.219561    11.462409
 C     7.540862     4.305461     9.214066
 C     6.415834     4.874147     9.721385
 C     9.129916     3.978350    10.952776
 C     9.855012     3.233848    11.885053
 H    10.517641     3.735925    12.588573
 C     9.717287     1.836210    11.915542
 H    10.286458     1.255917    12.640585
 C     8.851350     1.184045    11.030340
 H     8.745790     0.100543    11.068280
 C     8.110859     1.924355    10.095888
 H     7.418620     1.432472     9.413794
 C     8.258120     3.309412    10.058457
 C     9.355000     5.832692     9.343431
 C    10.285850     6.744801     8.843996
 H    10.950673     7.272122     9.526568
 C    10.348946     6.983292     7.461147
 H    11.077876     7.691590     7.070001
 C     9.478419     6.326321     6.583672
 H     9.529950     6.526959     5.514157
 C     8.532523     5.413978     7.076548
 H     7.838402     4.910570     6.405035
 C     8.479134     5.168803     8.446899
 C     6.748025     5.197210    12.051125
 C     6.585246     4.909058    13.407272
 H     7.176849     5.440778    14.151315
 C     5.667919     3.921064    13.802255
 H     5.540236     3.700545    14.861236
 C     4.924229     3.215135    12.849804
 H     4.218035     2.449645    13.168489
 C     5.093574     3.482753    11.482374
 H     4.538408     2.924609    10.729731
 C     6.001095     4.465215    11.092799
 C     6.963189     7.066917    10.442329
 C     6.993353     8.459443    10.361037
 H     7.584194     9.033053    11.074201
 C     6.267562     9.111787     9.350855
 H     6.289031    10.199306     9.292588
 C     5.522940     8.378388     8.419855
 H     4.966384     8.896622     7.640118
 C     5.498689     6.975764     8.480820
 H     4.942476     6.392982     7.748006
 C     6.215978     6.330496     9.485503
 C     9.847759     6.300356    11.863235
 C    11.117649     6.548110    12.374072
 H    12.016845     6.086583    11.968326
 C    11.176788     7.436906    13.464355
 H    12.142439     7.670239    13.911322
 C    10.018791     8.032087    13.996925
 H    10.119683     8.711321    14.842524
 C     8.740111     7.769574    13.468112
 H     7.848514     8.231604    13.889392
 C     8.696956     6.889111    12.390663
