   28
FINAL HEAT OF FORMATION =  -442.999415
 B     0.377666     6.649398     5.267587
 H     0.857554     6.077527     6.190726
 B    -1.994620     7.598385     3.935982
 H    -3.169925     7.659388     3.781223
 B    -1.210612     6.165191     4.640013
 H    -1.834856     5.215211     4.982738
 B    -0.938199     8.110689     2.575327
 H    -1.364360     8.463339     1.524522
 B     0.274501     5.893244     3.667154
 H     0.632442     4.814964     3.322649
 B     0.560439     8.414120     4.996554
 H     1.169710     9.113854     5.737530
 B     1.411617     7.253983     3.950549
 H     2.573410     7.051828     3.841168
 B     0.624463     8.690537     3.240805
 H     1.231829     9.505093     2.632209
 B    -1.030778     7.750927     5.420883
 H    -1.555621     7.977939     6.461502
 B    -0.895995     8.978594     4.117811
 H    -1.324912    10.081002     4.220456
 C     0.504859     7.168182     2.535603
 C    -1.182932     6.471116     2.983200
 N     1.026869     6.834456     1.283082
 N    -1.726402     5.668314     1.957837
 H    -1.885246     4.710644     2.272204
 H    -2.592103     6.062076     1.587683
 H     0.473219     7.197526     0.508547
 H     1.191080     5.834977     1.171756
