   50
FINAL HEAT OF FORMATION =  -981.447380
 B     5.647906     3.547162     3.581525
 B     4.110523     4.440564     3.699142
 B     3.609635     4.434740     5.405866
 B     5.645724     5.316867     3.568464
 B     4.381529     5.873834     4.709257
 C     4.420233     3.100377     4.712385
 C     2.718437     1.664138     4.051115
 H     2.098982     2.523929     3.755371
 N     3.897700     1.805355     4.553541
 C     2.148359     0.334486     3.827807
 C     0.880949     0.218208     3.224915
 H     0.334648     1.118985     2.944349
 C     0.328829    -1.043068     2.979631
 H    -0.649576    -1.126356     2.509193
 C     1.037486    -2.196755     3.338697
 H     0.609141    -3.179840     3.147622
 C     2.300704    -2.087927     3.944354
 H     2.848241    -2.987111     4.223303
 C     2.855473    -0.832842     4.187600
 H     3.833337    -0.723787     4.652208
 H     2.474076     4.254293     5.698341
 H     5.893936     2.759625     2.736420
 H     3.317209     4.268604     2.833844
 H     5.936838     5.896236     2.573847
 H     3.762390     6.870817     4.529320
 B     4.845080     3.542890     6.331205
 B     6.376991     4.447563     6.214885
 B     6.876732     4.447254     4.507466
 B     4.834593     5.312204     6.346238
 B     6.094636     5.879664     5.205895
 C     6.077602     3.106430     5.200450
 C     7.806253     1.677433     5.820386
 H     8.446022     2.537639     6.067421
 N     6.607299     1.816448     5.365786
 C     8.365385     0.344262     6.051624
 C     9.659698     0.215640     6.590774
 H    10.239214     1.110904     6.816326
 C    10.194531    -1.051886     6.842786
 H    11.193991    -1.146764     7.263966
 C     9.441193    -2.197189     6.554460
 H     9.856414    -3.184576     6.752051
 C     8.150245    -2.075566     6.012909
 H     7.568029    -2.968562     5.790207
 C     7.612746    -0.814686     5.762817
 H     6.613755    -0.693085     5.348583
 H     8.013612     4.276741     4.213994
 H     4.604050     2.752027     7.174654
 H     7.172421     4.278594     7.078855
 H     4.538842     5.888255     7.341499
 H     6.705755     6.881430     5.386344
