   54
FINAL HEAT OF FORMATION =  -983.870383
 B     1.110996     0.205658     8.195488
 B     0.623546     1.493430     9.361155
 B    -1.144277     1.319726     9.513743
 B    -1.569025    -0.050045     8.423181
 B     1.370381    -0.008267     9.939457
 B    -0.078124     0.647903    10.769928
 B    -1.494603    -0.282741    10.187630
 C    -0.349624     1.111431     8.054691
 N    -0.577818     1.820491     6.899149
 C     0.412263     2.660963     6.224898
 H     1.395004     2.207242     6.404337
 H     0.438837     3.675393     6.655935
 C     0.116847     2.723474     4.737549
 C     0.237106     3.929427     4.031256
 H     0.523693     4.839058     4.560230
 C    -0.013048     3.971452     2.653124
 H     0.079240     4.913888     2.114894
 C    -0.393205     2.808280     1.972111
 H    -0.594913     2.843464     0.902073
 C    -0.522538     1.602123     2.674756
 H    -0.820684     0.691641     2.156198
 C    -0.270070     1.559813     4.049908
 H    -0.384237     0.631554     4.609198
 H     1.955614     0.372661     7.381627
 H    -2.473655    -0.446596    10.839468
 H     1.169131     2.546047     9.314021
 H    -2.533820    -0.029910     7.731467
 H     2.458595     0.012995    10.414271
 H    -1.877515     2.251229     9.570070
 H    -0.034590     1.148307    11.846253
 H    -1.549442     2.060182     6.720323
 B     0.854994    -1.405437     8.966901
 B    -0.908890    -1.573965     9.119484
 B     0.064105    -1.095151    10.531286
 C    -0.190339    -0.842313     7.791757
 N    -0.294327    -1.234132     6.456346
 C     0.838820    -1.955266     5.825879
 H     1.683197    -1.260872     5.758106
 H     1.149324    -2.806443     6.452077
 C     0.420741    -2.440226     4.456578
 C    -0.369139    -3.597715     4.341523
 H    -0.637871    -4.156768     5.239203
 C    -0.801240    -4.044765     3.087868
 H    -1.408946    -4.945347     3.012872
 C    -0.440698    -3.341308     1.930986
 H    -0.770966    -3.691928     0.954358
 C     0.353486    -2.192492     2.035062
 H     0.647212    -1.646856     1.139240
 C     0.779041    -1.743378     3.291654
 H     1.390053    -0.845043     3.367445
 H     1.578207    -2.298283     8.671843
 H    -1.476307    -2.594064     8.902341
 H     0.219073    -1.849986    11.435223
 H    -1.193194    -1.668536     6.246682
