   72
FINAL HEAT OF FORMATION = -1219.836435
 N    10.263261     9.195481     2.023424
 N     8.479568     6.698545     1.422874
 C    12.330140    12.115074    -0.666076
 H    12.482876    12.157277    -1.746053
 C    11.201988    11.449488    -0.167774
 C     6.891159     6.030723    -0.291369
 C    11.001797    11.383476     1.230781
 C     9.900496     8.472772     3.141315
 C     9.833111    10.596151     1.789725
 H     9.491028    11.018444     2.741488
 H     8.981783    10.602937     1.097327
 C    13.267673    12.718853     0.183859
 B     7.750770     6.689811     4.096229
 C     8.753497     6.898634     2.763739
 B     8.205805     8.332493     3.499872
 C     6.007981     3.942812    -1.152169
 H     5.451666     3.018425    -0.987899
 C    11.936420    11.980510     2.106017
 C     7.446909     6.307680    -1.559855
 C    13.050707    12.640477     1.566023
 H    13.769563    13.101103     2.245221
 C     7.139435     6.984565     0.854911
 H     7.116400     8.027576     0.515071
 H     6.378719     6.872233     1.636734
 B     9.425465     9.028440     4.640652
 B    10.439389     6.851489     3.158664
 C     6.175139     4.829977    -0.080306
 B     8.132676     7.973021     5.247933
 C     7.260061     5.392499    -2.606338
 H     7.691609     5.612476    -3.584308
 C     6.540438     4.203693    -2.424306
 B     9.219174     5.714983     3.844892
 B    10.895498     8.039618     4.428682
 C    14.470312    13.440992    -0.384659
 H    14.176606    14.397587    -0.842294
 H    14.959015    12.843685    -1.166902
 H    15.211522    13.656162     0.394824
 C    10.225811    10.810356    -1.137875
 H    10.604696    10.874434    -2.165101
 H     9.244859    11.308451    -1.114337
 H    10.054924     9.750631    -0.906690
 B     8.817903     6.325833     5.466800
 C     8.251125     7.570157    -1.794424
 H     8.760698     7.534728    -2.765018
 H     9.007121     7.705650    -1.009046
 H     7.609969     8.465039    -1.787572
 B     9.821718     7.741165     5.809580
 C     5.594130     4.478932     1.274112
 H     5.167061     3.469040     1.258391
 H     4.793037     5.174020     1.566683
 H     6.355330     4.512471     2.065985
 B    10.509103     6.373523     4.871144
 C     6.367804     3.210255    -3.553898
 H     7.036285     2.345399    -3.424945
 H     6.598340     3.665563    -4.525254
 H     5.340553     2.823077    -3.591407
 C    11.761574    11.915996     3.608159
 H    12.597244    12.411670     4.115756
 H    11.713460    10.879730     3.968011
 H    10.833622    12.411159     3.929779
 H     7.458012     9.027616     2.896533
 H     9.184003     4.600965     3.434450
 H    11.173681     6.528328     2.283321
 H    10.173255     8.021284     6.909118
 H     6.655641     6.285497     3.878430
 H    11.987312     8.505756     4.409132
 H     8.456554     5.584254     6.321479
 H     7.282813     8.427226     5.942495
 H     9.442689    10.201796     4.817425
 H    11.359301     5.657487     5.289987
 H    11.184710     8.973443     1.656317
 H     8.915506     5.863005     1.038031
