   55
FINAL HEAT OF FORMATION = -1021.971401
 B     0.381910     0.674255    12.567928
 H    -0.784791     0.848893    12.492289
 B     1.219064     0.152988    14.020888
 H     0.578361    -0.130630    14.976265
 B     2.675198     1.182857    14.218972
 H     3.004315     1.534786    15.301571
 B     2.797030     2.324597    12.873289
 H     3.058916     3.470346    12.990001
 B     2.902599     1.457882    11.348945
 H     3.358767     2.010258    10.404922
 B     1.419623     0.460102    11.158624
 H     0.917967     0.353862    10.090060
 B     1.382171    -0.749451    12.487158
 H     0.881536    -1.815140    12.334376
 B     3.758711     0.881921    12.816592
 H     4.939405     0.954310    12.919510
 B     2.933086    -0.279503    11.733246
 H     3.544831    -1.037500    11.054526
 B     2.806817    -0.458220    13.518630
 H     3.337668    -1.333341    14.120091
 N     0.401737     2.883700    13.989968
 N     0.676165     3.185535    11.619270
 C     1.246226     1.815480    13.547472
 C     1.386179     1.982181    11.931552
 C    -0.216216     3.475435    12.786055
 H    -0.328558     4.555620    12.914803
 H    -1.210571     3.030100    12.614560
 C    -0.035126     3.197025    10.330920
 H    -0.888940     2.493061    10.336437
 H     0.674626     2.850299     9.568363
 C    -0.515437     4.599933    10.012675
 C     0.339999     5.699422    10.199560
 H     1.338407     5.527700    10.600883
 C    -0.093216     6.991914     9.888046
 H     0.576498     7.837748    10.039013
 C    -1.384177     7.199068     9.381648
 H    -1.721559     8.205809     9.139375
 C    -2.240264     6.107350     9.193400
 H    -3.246715     6.261562     8.806164
 C    -1.808520     4.813903     9.513579
 H    -2.479965     3.965611     9.374169
 C     0.995216     3.851324    14.941894
 H     1.801317     4.442669    14.478470
 H     1.439652     3.255632    15.749140
 C    -0.082390     4.766205    15.484909
 C     0.107415     6.156029    15.503184
 H     1.036538     6.576139    15.116345
 C    -0.888125     7.002922    16.008136
 H    -0.730354     8.080628    16.014897
 C    -2.085959     6.463869    16.491259
 H    -2.864174     7.120664    16.877520
 C    -2.284374     5.075627    16.470375
 H    -3.216776     4.652485    16.842449
 C    -1.288668     4.231118    15.971089
 H    -1.441172     3.152759    15.938939
