   70
scf done: -1617.252358
 H    -6.120092    -0.877335    -1.674322
 C    -4.342752    -0.000500     0.869884
 C    -3.490080    -0.000061    -0.243245
 C    -4.128757     0.000182    -1.494632
 C    -3.320241     0.000419    -2.619514
 C    -5.774493    -0.000803     0.341460
 C    -5.630441     0.000244    -1.234466
 H    -3.742135     0.000584    -3.621531
 H    -6.333009    -0.879014     0.686261
 H    -6.334070     0.876287     0.687370
 H    -6.119563     0.878806    -1.672967
 H    -0.387306    -4.581304    -0.985469
 C    -1.474182    -0.000332     1.137905
 C    -2.316729    -0.000755     2.248125
 C    -3.745612    -0.000860     2.118949
 C    -1.892194     0.000439    -2.487195
 C    -1.285937     0.000246    -1.242075
 C    -2.105600    -0.000022    -0.112355
 C     0.060772    -0.000171     0.970868
 C     0.689317     1.260677     1.615054
 C    -0.102840     2.201770     2.297161
 C     0.414989     3.378408     2.834642
 C     1.766380     3.680034     2.678731
 C     2.574283     2.771535     2.011054
 C     2.075515     1.553933     1.506164
 C     3.060170     0.673091     0.889447
 C     3.060264    -0.672887     0.889129
 C     2.075758    -1.554137     1.505520
 C     2.574740    -2.771864     2.009911
 C     1.766972    -3.680796     2.677161
 C     0.415518    -3.379477     2.833170
 C    -0.102501    -2.202696     2.296199
 C     0.689522    -1.261176     1.614499
 C     0.199888     0.000201    -0.832508
 C     0.758682     1.356848    -1.325032
 C    -0.045577     2.463450    -0.983285
 C     0.272458     3.777925    -1.297378
 C     0.273094    -3.777422    -1.298147
 C    -0.045233    -2.463053    -0.983901
 C     0.758826    -1.356241    -1.325460
 H    -1.901439    -0.001054     3.251974
 H    -4.340428    -0.001247     3.029483
 H    -1.167913     2.042747     2.385250
 H    -0.250939     4.067620     3.346989
 H     2.182650     4.604955     3.068500
 H     3.633154     2.982236     1.882261
 H     3.936130     1.172449     0.480392
 H     3.936321    -1.171927     0.479867
 H     3.633655    -2.982299     1.881070
 H     2.183396    -4.605819     3.066521
 H    -0.250312    -4.069061     3.345138
 H    -1.167587    -2.043849     2.384371
 H    -0.952770     2.278964    -0.423968
 H    -0.388104     4.581608    -0.984531
 H    -0.952444    -2.278778    -0.424540
 H     1.717579    -5.060513    -2.275262
 C     1.440977     4.044732    -2.008673
 C     2.247056     2.979817    -2.375101
 C     1.944065     1.633571    -2.052510
 C     2.928348     0.673108    -2.529163
 C     2.928483    -0.671899    -2.529284
 C     1.944330    -1.632633    -2.052871
 C     2.247639    -2.978766    -2.375598
 C     1.441745    -4.043888    -2.009356
 H    -1.289484     0.000606    -3.391681
 H     1.716582     5.061441    -2.274499
 H     3.157249     3.174641    -2.936185
 H     3.801498     1.135858    -2.986690
 H     3.801719    -1.134392    -2.986908
 H     3.157923    -3.173367    -2.936606
