  212
scf done: -3353.037267
 C     0.849433    -0.008273     0.012237
 C    -0.849433     0.008273    -0.012237
 C     1.490192     0.333657    -1.395813
 C    -1.490192    -0.333657     1.395813
 C    -1.453210     1.408982    -0.433610
 C     1.453210    -1.408982     0.433610
 C     1.453671     1.049931     1.021536
 C    -1.453671    -1.049931    -1.021536
 C     1.074703     1.110680     2.375670
 C    -1.074703    -1.110680    -2.375670
 C    -1.096667    -1.455159     2.159820
 C     1.096667     1.455159    -2.159820
 C     1.071534    -2.621313    -0.176157
 C    -1.071534     2.621313     0.176157
 C     2.529384     1.869140     0.638667
 C    -2.529384    -1.869140    -0.638667
 C    -2.612465     0.374789     1.850289
 C     2.612465    -0.374789    -1.850289
 C     2.549918    -1.472765     1.310448
 C    -2.549918     1.472765    -1.310448
 C     1.680361     1.988642     3.287386
 C    -1.680361    -1.988642    -3.287386
 C    -1.758490    -1.830482     3.334101
 C     1.758490     1.830482    -3.334101
 C     1.710729    -3.839385     0.098309
 C    -1.710729     3.839385    -0.098309
 C     3.155865     2.771375     1.511565
 C    -3.155865    -2.771375    -1.511565
 C    -3.330376     0.010072     3.005166
 C     3.330376    -0.010072    -3.005166
 C     3.236444    -2.662991     1.594395
 C    -3.236444     2.662991    -1.594395
 C     2.700327     2.834764     2.832238
 C    -2.700327    -2.834764    -2.832238
 C    -2.880561    -1.086549     3.738086
 C     2.880561     1.086549    -3.738086
 C     2.794794    -3.840050     0.985696
 C    -2.794794     3.840050    -0.985696
 H     0.299781     0.462809     2.751894
 H    -0.299781    -0.462809    -2.751894
 H    -0.261231    -2.044743     1.828432
 H     0.261231     2.044743    -1.828432
 H     0.276639    -2.625010    -0.903350
 H    -0.276639     2.625010     0.903350
 H     2.930467     1.786975    -0.359949
 H    -2.930467    -1.786975     0.359949
 H    -2.986081     1.215898     1.285773
 H     2.986081    -1.215898    -1.285773
 H     2.905853    -0.567417     1.780594
 H    -2.905853     0.567417    -1.780594
 C     1.237254     1.969907     4.764883
 C    -1.237254    -1.969907    -4.764883
 C    -1.325056    -3.040296     4.188776
 C     1.325056     3.040296    -4.188776
 C     1.226251    -5.134131    -0.584505
 C    -1.226251     5.134131     0.584505
 C     4.375284     3.580717     1.024888
 C    -4.375284    -3.580717    -1.024888
 C    -4.578422     0.818724     3.407263
 C     4.578422    -0.818724    -3.407263
 C     4.471137    -2.621720     2.515247
 C    -4.471137     2.621720    -2.515247
 H     3.153569     3.529167     3.524870
 H    -3.153569    -3.529167    -3.524870
 H    -3.406385    -1.384441     4.634788
 H     3.406385     1.384441    -4.634788
 H     3.311914    -4.768243     1.181349
 H    -3.311914     4.768243    -1.181349
 C     5.244972    -0.284532    -4.691091
 C    -5.244972     0.284532     4.691091
 C    -5.077012     4.017524    -2.764722
 C     5.077012    -4.017524     2.764722
 C     4.755951     4.716238     1.995186
 C    -4.755951    -4.716238    -1.995186
 C     5.627821    -0.750670    -2.269747
 C    -5.627821     0.750670     2.269747
 C    -5.558646     1.742077    -1.856907
 C     5.558646    -1.742077     1.856907
 C     5.577532     2.610515     0.913802
 C    -5.577532    -2.610515    -0.913802
 C     4.187292    -2.295350    -3.647814
 C    -4.187292     2.295350     3.647814
 C    -4.095079     2.010996    -3.883993
 C     4.095079    -2.010996     3.883993
 C     4.110354     4.224136    -0.357002
 C    -4.110354    -4.224136     0.357002
 C     1.083125     2.574719    -5.645268
 C    -1.083125    -2.574719     5.645268
 C    -2.073947     6.365886     0.204694
 C     2.073947    -6.365886    -0.204694
 C     1.923503     3.059573     5.613068
 C    -1.923503    -3.059573    -5.613068
 C     0.029308     3.697139    -3.679751
 C    -0.029308    -3.697139     3.679751
 C     0.232734     5.417568     0.161748
 C    -0.232734    -5.417568    -0.161748
 C    -0.288397     2.184276     4.867439
 C     0.288397    -2.184276    -4.867439
 C     2.441563     4.112678    -4.186236
 C    -2.441563    -4.112678     4.186236
 C    -1.287688     4.971763     2.118671
 C     1.287688    -4.971763    -2.118671
 C     1.583277     0.594295     5.384112
 C    -1.583277    -0.594295    -5.384112
 H     0.706982     3.406760    -6.252104
 H    -0.706982    -3.406760     6.252104
 H    -1.695623     7.245955     0.737428
 H     1.695623    -7.245955    -0.737428
 H     1.602315     2.966974     6.657153
 H    -1.602315    -2.966974    -6.657153
 H     1.998646     2.208871    -6.121321
 H    -1.998646    -2.208871     6.121321
 H    -3.126122     6.236337     0.482248
 H     3.126122    -6.236337    -0.482248
 H     3.015138     2.965008     5.599106
 H    -3.015138    -2.965008    -5.599106
 H     0.343997     1.768400    -5.671661
 H    -0.343997    -1.768400     5.671661
 H    -2.025717     6.584947    -0.868411
 H     2.025717    -6.584947     0.868411
 H     1.661992     4.068841     5.273378
 H    -1.661992    -4.068841    -5.273378
 H     2.194359     4.922780    -4.883359
 H    -2.194359    -4.922780     4.883359
 H    -0.949843     5.891658     2.612243
 H     0.949843    -5.891658    -2.612243
 H     1.162058     0.513000     6.393871
 H    -1.162058    -0.513000    -6.393871
 H     2.568451     4.552765    -3.190532
 H    -2.568451    -4.552765     3.190532
 H    -0.645477     4.155748     2.459466
 H     0.645477    -4.155748    -2.459466
 H     1.173910    -0.223689     4.784011
 H    -1.173910     0.223689    -4.784011
 H     3.407369     3.696518    -4.493092
 H    -3.407369    -3.696518     4.493092
 H    -2.310225     4.765869     2.456326
 H     2.310225    -4.765869    -2.456326
 H     2.667527     0.452594     5.455884
 H    -2.667527    -0.452594    -5.455884
 H    -0.229359     4.541854    -4.328944
 H     0.229359    -4.541854     4.328944
 H     0.609047     6.334874     0.633910
 H    -0.609047    -6.334874    -0.633910
 H    -0.588727     2.250016     5.920379
 H     0.588727    -2.250016    -5.920379
 H    -0.814384     2.999220    -3.688483
 H     0.814384    -2.999220     3.688483
 H     0.294928     5.549806    -0.924114
 H    -0.294928    -5.549806     0.924114
 H    -0.586885     3.108319     4.364548
 H     0.586885    -3.108319    -4.364548
 H     0.136377     4.083260    -2.662501
 H    -0.136377    -4.083260     2.662501
 H     0.901491     4.599385     0.440238
 H    -0.901491    -4.599385    -0.440238
 H    -0.849957     1.361404     4.416768
 H     0.849957    -1.361404    -4.416768
 H     6.143309    -0.874798    -4.902894
 H    -6.143309     0.874798     4.902894
 H    -5.945706     3.929210    -3.426976
 H     5.945706    -3.929210     3.426976
 H     5.567386     5.307056     1.556593
 H    -5.567386    -5.307056    -1.556593
 H     4.585319    -0.363325    -5.562986
 H    -4.585319     0.363325     5.562986
 H    -4.364685     4.694599    -3.250047
 H     4.364685    -4.694599     3.250047
 H     3.910444     5.388518     2.181170
 H    -3.910444    -5.388518    -2.181170
 H     5.556610     0.760403    -4.583810
 H    -5.556610    -0.760403     4.583810
 H    -5.417180     4.485942    -1.833905
 H     5.417180    -4.485942     1.833905
 H     5.113099     4.336572     2.958919
 H    -5.113099    -4.336572    -2.958919
 H     6.549232    -1.264488    -2.570691
 H    -6.549232     1.264488     2.570691
 H    -6.461968     1.710172    -2.479251
 H     6.461968    -1.710172     2.479251
 H     6.490722     3.159404     0.653244
 H    -6.490722    -3.159404    -0.653244
 H     5.880065     0.290700    -2.035957
 H    -5.880065    -0.290700     2.035957
 H    -5.840457     2.135400    -0.873470
 H     5.840457    -2.135400     0.873470
 H     5.751404     2.096019     1.866049
 H    -5.751404    -2.096019    -1.866049
 H     5.274495    -1.225728    -1.348716
 H    -5.274495     1.225728     1.348716
 H    -5.212449     0.714026    -1.712455
 H     5.212449    -0.714026     1.712455
 H     5.409637     1.847717     0.145126
 H    -5.409637    -1.847717    -0.145126
 H     5.069650    -2.875729    -3.942352
 H    -5.069650     2.875729     3.942352
 H    -4.977139     1.968570    -4.534759
 H     4.977139    -1.968570     4.534759
 H     5.022247     4.704661    -0.732460
 H    -5.022247    -4.704661     0.732460
 H     3.767318    -2.756639    -2.748589
 H    -3.767318     2.756639     2.748589
 H    -3.704303     0.993624    -3.788779
 H     3.704303    -0.993624     3.788779
 H     3.785497     3.500369    -1.110667
 H    -3.785497    -3.500369     1.110667
 H     3.440694    -2.374395    -4.445167
 H    -3.440694     2.374395     4.445167
 H    -3.333180     2.616531    -4.388550
 H     3.333180    -2.616531     4.388550
 H     3.334174     4.993539    -0.280924
 H    -3.334174    -4.993539     0.280924
