   66
scf done: -2158.973622
Cl    -1.996456     3.063255    -0.862380
Cl    -1.941687    -3.038510     0.970159
 C    -0.712495    -0.669747     0.225836
 C     0.818544    -0.732216     0.413127
 C     0.804645     0.744656    -0.441026
 C    -0.720884     0.677086    -0.230104
 C    -1.903292     1.358595    -0.396638
 C    -3.151157     0.678046    -0.194147
 C    -4.405997     1.316970    -0.382356
 C    -5.592278     0.642405    -0.203257
 C    -5.582315    -0.714784     0.178933
 C    -4.386064    -1.367377     0.372808
 C    -3.141338    -0.705898     0.195940
 C    -1.883583    -1.361088     0.414565
 C     1.580394    -1.900346    -0.221951
 C     0.918847    -2.980225    -0.826508
 C     1.613370    -4.075206    -1.347702
 C     3.004577    -4.120063    -1.288111
 C     3.686532    -3.046261    -0.714157
 C     2.985418    -1.958361    -0.194288
 C     1.111834    -0.670228     2.029834
 C     0.023818     0.149965     2.763611
 C     1.066723    -2.115568     2.584760
 C     2.473472    -0.086875     2.491439
 C     1.571930     1.910519     0.184385
 C     0.920643     2.982883     0.809092
 C     1.628340     4.053664     1.362171
 C     3.020276     4.080807     1.305016
 C     3.690893     3.012722     0.705858
 C     2.977573     1.945435     0.162778
 C     1.080606     0.689870    -2.055894
 C     0.165314    -0.310408    -2.807832
 C     0.763162     2.092628    -2.630633
 C     2.531078     0.386112    -2.502124
 H    -4.417059     2.359272    -0.674797
 H    -6.534998     1.159475    -0.357647
 H    -6.517287    -1.248983     0.321641
 H    -4.382036    -2.409879     0.665421
 H    -0.159456    -2.972186    -0.909253
 H     1.055841    -4.890194    -1.800793
 H     3.551080    -4.969890    -1.687089
 H     4.772904    -3.048240    -0.673930
 H     3.553568    -1.132221     0.211546
 H    -0.947462    -0.350833     2.755971
 H     0.316605     0.279403     3.811579
 H    -0.099847     1.142327     2.327422
 H     1.920391    -2.700214     2.232885
 H     1.105470    -2.083570     3.680418
 H     0.153825    -2.639586     2.308346
 H     2.548605     0.990191     2.355766
 H     2.561518    -0.283166     3.567168
 H     3.338938    -0.559516     2.023761
 H    -0.158158     2.987413     0.872865
 H     1.081524     4.864797     1.834832
 H     3.576732     4.912901     1.726955
 H     4.777482     3.000152     0.674163
 H     3.529414     1.105662    -0.235417
 H     0.421596    -1.356116    -2.626124
 H    -0.895829    -0.164567    -2.590309
 H     0.295070    -0.142259    -3.882746
 H    -0.289463     2.350554    -2.520739
 H     1.358550     2.874529    -2.152176
 H     0.998702     2.106079    -3.701218
 H     2.533141     0.326145    -3.596890
 H     3.223944     1.188117    -2.240653
 H     2.923610    -0.562538    -2.133753
