   62
scf done: -1981.803739
 I     3.555581     1.563506    -0.215855
 I    -3.555459     1.563669     0.216316
 C     0.849462    -1.071240    -0.190527
 C    -0.849541    -1.071169     0.190387
 C    -0.699988     0.450094     0.091917
 C    -1.427318     1.611153     0.124273
 C    -0.723226     2.862694     0.055444
 C    -1.387660     4.117025     0.118592
 C    -0.701843     5.309264     0.062637
 C     0.702013     5.309235    -0.063852
 C     1.387824     4.116974    -0.119412
 C     0.723377     2.862659    -0.055926
 C     1.427415     1.611057    -0.124477
 C     0.700016     0.450044    -0.092109
 C     1.121079    -1.581451    -1.606375
 C     1.647164    -0.741195    -2.595436
 C     1.885460    -1.199958    -3.892637
 C     1.597236    -2.519519    -4.232393
 C     1.073261    -3.374853    -3.260536
 C     0.835079    -2.912046    -1.967361
 C     1.815160    -1.643493     0.854947
 C     1.921313    -1.019560     2.111907
 C     2.794713    -1.489783     3.089105
 C     3.601576    -2.600746     2.836996
 C     3.518601    -3.227460     1.595132
 C     2.641055    -2.753327     0.616435
 C    -1.815286    -1.643420    -0.855045
 C    -1.921481    -1.019558    -2.112049
 C    -2.794930    -1.489832    -3.089174
 C    -3.601814    -2.600751    -2.836955
 C    -3.518822    -3.227364    -1.595043
 C    -2.641222    -2.753194    -0.616417
 C    -1.121098    -1.581305     1.606247
 C    -0.835322    -2.911928     1.967315
 C    -1.073518    -3.374592     3.260547
 C    -1.597309    -2.519112     4.232375
 C    -1.885315    -1.199523     3.892530
 C    -1.646992    -0.740905     2.595288
 H    -2.466487     4.121140     0.220476
 H    -1.245355     6.248192     0.116382
 H     1.245531     6.248140    -0.117901
 H     2.466656     4.121096    -0.221267
 H     1.870643     0.289058    -2.353100
 H     2.293473    -0.518428    -4.634208
 H     1.773696    -2.879939    -5.242160
 H     0.838842    -4.405779    -3.512944
 H     0.417741    -3.600622    -1.238572
 H     1.320994    -0.144663     2.332963
 H     2.849369    -0.977471     4.045892
 H     4.290133    -2.964731     3.594537
 H     4.146416    -4.086469     1.373310
 H     2.624850    -3.250013    -0.346117
 H    -1.321237    -0.144627    -2.333157
 H    -2.849635    -0.977576    -4.045987
 H    -4.290369    -2.964813    -3.594459
 H    -4.146691    -4.086305    -1.373116
 H    -2.625011    -3.249776     0.346183
 H    -0.418167    -3.600692     1.238584
 H    -0.839251    -4.405541     3.512997
 H    -1.773779    -2.879418     5.242181
 H    -2.293182    -0.517862     4.634062
 H    -1.870389     0.289348     2.352880
