   54
scf done: -1307.560981
 C     0.000144     0.651911     0.856120
 C    -0.000206     0.652067    -0.855936
 C     0.000394    -1.916091     0.677293
 C     0.000115    -1.916182    -0.677889
 C    -1.227444    -0.021807     1.459364
 C    -2.301038     0.634657     2.053205
 H    -2.313368     1.720340     2.093002
 C    -3.363550    -0.105433     2.588750
 H    -4.198113     0.412655     3.053033
 C    -3.354980    -1.497818     2.523382
 H    -4.182171    -2.068659     2.935769
 C    -2.283223    -2.168317     1.918572
 H    -2.279011    -3.252767     1.852207
 C    -1.227878    -1.436383     1.390049
 C     1.228068    -0.021577     1.458921
 C     2.301542     0.635176     2.052629
 H     2.313667     1.720873     2.092175
 C     3.364260    -0.104621     2.588199
 H     4.198671     0.413683     3.052490
 C     3.355990    -1.497001     2.522905
 H     4.183290    -2.067661     2.935334
 C     2.284367    -2.167795     1.918153
 H     2.280560    -3.252247     1.851689
 C     1.228811    -1.436177     1.389650
 C    -1.227995    -0.021512    -1.458872
 C    -2.301763     0.635238    -2.052089
 H    -2.314134     1.720934    -2.091236
 C    -3.364376    -0.104591    -2.587783
 H    -4.199114     0.413743    -3.051489
 C    -3.355776    -1.497004    -2.523134
 H    -4.182915    -2.067635    -2.935888
 C    -2.283899    -2.167797    -1.918840
 H    -2.279813    -3.252269    -1.852749
 C    -1.228490    -1.436145    -1.390080
 C     1.227539    -0.021277    -1.459299
 C     2.300938     0.635775    -2.052824
 H     2.312907     1.721471    -2.092127
 C     3.363678    -0.103745    -2.588722
 H     4.198132     0.414805    -3.052656
 C     3.355490    -1.496149    -2.523975
 H     4.182760    -2.066600    -2.936752
 C     2.283936    -2.167240    -1.919430
 H     2.280164    -3.251723    -1.853472
 C     1.228396    -1.435936    -1.390474
 C     0.000006     2.161520     0.697254
 C    -0.000072     3.339021     1.436623
 H     0.000220     3.353008     2.523437
 C    -0.000548     4.535604     0.701250
 H    -0.000603     5.486277     1.227930
 C    -0.000959     4.535726    -0.700431
 H    -0.001361     5.486484    -1.226970
 C    -0.000880     3.339235    -1.435973
 H    -0.001248     3.353318    -2.522776
 C    -0.000350     2.161664    -0.696728
