   55
scf done: -1021.584023
 B    -2.227637    -0.054763    -1.444124
 H    -1.449312    -0.060386    -2.331726
 B    -3.071523     1.373359    -0.874734
 H    -2.929771     2.390875    -1.464527
 B    -3.008682     1.379156     0.917158
 H    -2.861440     2.402310     1.494841
 B    -2.154841    -0.056996     1.485348
 H    -1.327090    -0.045870     2.325219
 B    -2.989884    -1.502082     0.950861
 H    -2.817568    -2.518695     1.535036
 B    -3.019382    -1.505461    -0.844459
 H    -2.871819    -2.524691    -1.429020
 B    -3.964451    -0.081017    -1.390483
 H    -4.587935    -0.107768    -2.400017
 B    -3.892750    -0.061384     1.504731
 H    -4.466448    -0.049816     2.543556
 B    -4.450313    -0.978013     0.077151
 H    -5.437044    -1.636773     0.108557
 B    -4.472879     0.817336     0.062706
 H    -5.476292     1.450093     0.094268
 N    -0.349904     1.176504    -0.096249
 N    -0.303642    -1.215591     0.033414
 C    -1.708979     0.766551    -0.008856
 C    -1.690797    -0.867768     0.024180
 C     0.468241    -0.008452    -0.385755
 H     1.414352     0.053311     0.158293
 H     0.694228    -0.069293    -1.461187
 C     0.075153    -2.447623    -0.666037
 H     0.004651    -2.325299    -1.760852
 H    -0.658518    -3.210517    -0.384349
 C     1.471396    -2.911828    -0.294971
 C     1.902464    -2.897587     1.038236
 H     1.237077    -2.501663     1.800060
 C     3.170493    -3.367836     1.378313
 H     3.493078    -3.345080     2.415525
 C     4.023289    -3.865948     0.389328
 H     5.010489    -4.234560     0.652987
 C     3.601362    -3.883362    -0.940692
 H     4.259199    -4.265020    -1.716960
 C     2.334556    -3.403149    -1.280403
 H     2.014554    -3.414874    -2.319673
 C     0.167516     2.117930     0.904865
 H     0.395043     1.620949     1.861282
 H    -0.635749     2.835253     1.104011
 C     1.392271     2.853575     0.392913
 C     2.528036     2.991547     1.196913
 H     2.547513     2.533603     2.183464
 C     3.637745     3.710592     0.744916
 H     4.513426     3.806130     1.381320
 C     3.624112     4.295702    -0.520908
 H     4.486989     4.853024    -0.874713
 C     2.495617     4.155585    -1.334332
 H     2.475541     4.607156    -2.322680
 C     1.390011     3.438282    -0.880905
 H     0.514449     3.323263    -1.514478
