   50
scf done:  -981.079346
 B     5.746365     3.498243     3.607374
 B     4.207884     4.393240     3.617108
 B     3.590277     4.394392     5.279686
 B     5.749852     5.266402     3.594033
 B     4.411924     5.830582     4.638342
 C     4.438026     3.049338     4.648424
 C     2.688427     1.649912     4.038481
 H     2.044465     2.524337     3.886415
 N     3.902239     1.768521     4.428014
 C     2.075139     0.345631     3.767621
 C     0.717714     0.292978     3.416298
 H     0.144586     1.215188     3.355716
 C     0.102039    -0.929905     3.152437
 H    -0.949911    -0.959176     2.884125
 C     0.841702    -2.111196     3.233093
 H     0.366523    -3.066075     3.026232
 C     2.197740    -2.066123     3.579957
 H     2.773001    -2.986048     3.638801
 C     2.813379    -0.848217     3.847193
 H     3.863652    -0.794785     4.114917
 H     2.437144     4.235277     5.502681
 H     6.054603     2.717027     2.777820
 H     3.476109     4.228206     2.699560
 H     6.111215     5.841634     2.620888
 H     3.806519     6.826496     4.412975
 B     4.747377     3.498026     6.289720
 B     6.285559     4.393527     6.280022
 B     6.903165     4.394953     4.617439
 B     4.743291     5.266178     6.303131
 B     6.081031     5.830850     5.258843
 C     6.055859     3.049582     5.248654
 C     7.805749     1.650139     5.858586
 H     8.449822     2.524454     6.010801
 N     6.591954     1.768853     5.469008
 C     8.418729     0.345731     6.129527
 C     9.776110     0.292729     6.480967
 H    10.349482     1.214786     6.541569
 C    10.391427    -0.930319     6.744917
 H    11.443346    -0.959874     7.013318
 C     9.651448    -2.111415     6.664250
 H    10.126349    -3.066415     6.871190
 C     8.295454    -2.065991     6.317275
 H     7.719944    -2.985760     6.258425
 C     7.680177    -0.847925     6.049941
 H     6.629937    -0.794219     5.782141
 H     8.056349     4.236241     4.394427
 H     4.439393     2.716675     7.119244
 H     7.017388     4.228707     7.197564
 H     4.381737     5.841251     7.276299
 H     6.686108     6.826956     5.484250
