   54
scf done:  -983.499726
 B     1.993172     1.227138     0.000000
 B     2.936510     0.743744     1.454320
 B     2.962037    -1.025909     1.452441
 B     2.042628    -1.528193     0.000000
 B     3.772631     1.311584     0.000000
 B     4.380463    -0.122495     0.883824
 B     3.817620    -1.571988     0.000000
 C     1.604117    -0.160373     0.942121
 N     0.352274    -0.234733     1.546741
 C    -0.146889     0.860143     2.395253
 H    -0.339498     1.727137     1.753156
 H     0.603181     1.169658     3.135330
 C    -1.418512     0.426011     3.092868
 C    -1.515281     0.447642     4.488100
 H    -0.666320     0.779401     5.080638
 C    -2.691356     0.043012     5.124442
 H    -2.752241     0.063827     6.209122
 C    -3.780423    -0.393918     4.370039
 H    -4.693890    -0.711982     4.865033
 C    -3.690007    -0.425792     2.975453
 H    -4.533811    -0.767635     2.382432
 C    -2.516254    -0.018597     2.343100
 H    -2.430368    -0.051827     1.260303
 H     1.222373     2.124201     0.000000
 H     4.399039    -2.606830     0.000000
 H     2.807974     1.380721     2.445514
 H     1.289365    -2.443395     0.000000
 H     4.326827     2.361189     0.000000
 H     2.825851    -1.657607     2.447727
 H     5.379402    -0.101729     1.525228
 H     0.182454    -1.146237     1.957298
 B     2.936510     0.743744    -1.454320
 B     2.962037    -1.025909    -1.452441
 B     4.380463    -0.122495    -0.883824
 C     1.604117    -0.160373    -0.942121
 N     0.352274    -0.234733    -1.546741
 C    -0.146889     0.860143    -2.395253
 H    -0.339498     1.727137    -1.753156
 H     0.603181     1.169658    -3.135330
 C    -1.418512     0.426011    -3.092868
 C    -1.515281     0.447642    -4.488100
 H    -0.666320     0.779401    -5.080638
 C    -2.691356     0.043012    -5.124442
 H    -2.752241     0.063827    -6.209122
 C    -3.780423    -0.393918    -4.370039
 H    -4.693890    -0.711982    -4.865033
 C    -3.690007    -0.425792    -2.975453
 H    -4.533811    -0.767635    -2.382432
 C    -2.516254    -0.018597    -2.343100
 H    -2.430368    -0.051827    -1.260303
 H     2.807974     1.380721    -2.445514
 H     2.825851    -1.657607    -2.447727
 H     5.379402    -0.101729    -1.525228
 H     0.182454    -1.146237    -1.957298
