   72
scf done: -1219.395870
 N     1.621495     0.609352     0.184567
 N    -1.517427     0.666024     0.117945
 C     3.812384    -3.239668     0.389270
 H     3.457585    -4.239226     0.635902
 C     2.901739    -2.310122    -0.120088
 C    -3.425776    -0.790893    -0.480581
 C     3.344507    -1.011365    -0.447296
 C     1.038126     1.865226     0.119393
 C     2.349899     0.013170    -0.956883
 H     2.854966     0.794222    -1.531942
 H     1.626862    -0.455138    -1.631426
 C     5.157497    -2.916842     0.593569
 B    -1.340265     3.253533    -0.743541
 C    -0.885030     1.897321     0.132466
 B     0.112868     2.305060    -1.242424
 C    -5.446777    -1.390342     0.717836
 H    -6.312368    -1.088427     1.304703
 C     4.694026    -0.661431    -0.239471
 C    -3.244895    -2.144256    -0.824597
 C     5.573194    -1.622806     0.274991
 H     6.613345    -1.344166     0.435912
 C    -2.458599     0.276386    -0.955202
 H    -1.890072    -0.071110    -1.820848
 H    -3.025817     1.154539    -1.275682
 B     1.574627     3.222324    -0.736600
 B     0.064370     2.276621     1.496394
 C    -4.547915    -0.410817     0.290861
 B     0.134388     4.080900    -1.289801
 C    -4.171043    -3.095035    -0.376036
 H    -4.021982    -4.138761    -0.644038
 C    -5.277888    -2.741069     0.396152
 B    -1.357710     3.262278     1.027099
 B     1.547710     3.181505     1.033556
 C     6.130041    -3.935531     1.140476
 H     6.383575    -4.695529     0.389504
 H     5.708380    -4.464960     2.002645
 H     7.065153    -3.462458     1.457532
 C     1.454310    -2.711141    -0.309988
 H     1.233143    -3.628474     0.243731
 H     1.228748    -2.905576    -1.367149
 H     0.771626    -1.926255     0.033426
 B    -0.749821     4.673659     0.152442
 C    -2.101712    -2.602321    -1.705572
 H    -2.017607    -3.693208    -1.696707
 H    -1.138958    -2.194986    -1.385452
 H    -2.254385    -2.296171    -2.749247
 B     1.016095     4.642763     0.167445
 C    -4.825948     1.039895     0.621639
 H    -5.605811     1.123483     1.384310
 H    -5.172024     1.587996    -0.265261
 H    -3.935034     1.559264     0.984731
 B     0.109307     4.058598     1.593229
 C    -6.277382    -3.774561     0.862135
 H    -6.325129    -3.823004     1.956974
 H    -6.022566    -4.773472     0.494589
 H    -7.287659    -3.534636     0.508769
 C     5.231734     0.721216    -0.546505
 H     6.294066     0.778738    -0.295043
 H     4.717867     1.507092     0.020262
 H     5.133923     0.976746    -1.608970
 H     0.087279     1.562078    -2.163480
 H    -2.357522     3.151577     1.656256
 H     0.054672     1.500867     2.393147
 H     1.676740     5.629492     0.188267
 H    -2.316672     3.189661    -1.412208
 H     2.530961     3.014294     1.678217
 H    -1.370183     5.686111     0.144497
 H     0.137647     4.664257    -2.323668
 H     2.576265     3.097086    -1.358533
 H     0.126478     4.609445     2.644788
 H     2.064695     0.428804     1.077522
 H    -1.723480     0.275882     1.027960
