   68
FINAL HEAT OF FORMATION = -1614.845279
 C     9.143475    11.502998    15.352003
 C     8.166062    12.455034    15.664392
 C     7.053054    12.156350    16.520591
 C     6.904736    10.887160    17.079263
 C     7.902688     9.950356    16.747125
 C     7.695023     8.690492    17.344276
 C     8.645986     7.710136    17.061533
 C     9.762927     7.999084    16.206070
 C     9.931777     9.257234    15.635993
 C     8.970907    10.234990    15.926521
 C     5.986784    10.144748    17.966475
 C     6.450099     8.858627    18.121104
 C    10.417784    11.537385    14.483766
 C    11.427624    12.571829    15.036385
 C    11.127527    13.324791    16.189801
 C    12.028725    14.216427    16.772223
 C    13.304613    14.371307    16.228150
 C    13.635386    13.636350    15.096639
 C    12.719452    12.762187    14.469622
 C    13.198745    12.118913    13.253219
 C    12.478698    11.730729    12.181228
 C    11.042217    11.858083    11.972742
 C    10.634722    12.019142    10.629501
 C     9.305990    12.216318    10.275302
 C     8.343427    12.230124    11.285824
 C     8.724764    12.029626    12.612763
 C    10.064489    11.837123    13.007057
 C    11.016520     9.821615    14.702792
 C    12.324669     9.813860    15.531393
 C    12.181585    10.260586    16.865165
 C    13.234322    10.351525    17.771650
 C    14.518391     9.977405    17.373014
 C    14.695881     9.526940    16.073556
 C    13.635713     9.429007    15.135121
 C    14.050122     8.914023    13.838044
 C    13.330061     8.526430    12.767757
 C    11.892086     8.490618    12.543446
 C    11.518684     7.816958    11.351393
 C    10.199963     7.653322    10.954833
 C     9.196182     8.178158    11.770120
 C     9.543449     8.840613    12.944333
 C    10.875398     9.034000    13.377123
 H     8.229832    13.467458    15.255473
 H     6.330211    12.955233    16.717814
 H     8.566443     6.701686    17.481464
 H    10.486170     7.202250    16.009608
 H     5.083614    10.549835    18.427396
 H    10.165289    13.197993    16.680761
 H    11.733492    14.769828    17.669171
 H    14.032620    15.050808    16.681733
 H    14.630758    13.743093    14.654130
 H    14.288144    12.035260    13.171274
 H    13.042061    11.363405    11.316241
 H    11.405334    12.004862     9.852370
 H     9.024834    12.352117     9.226511
 H     7.284902    12.372103    11.046451
 H     7.933346    11.994927    13.358079
 H    11.197603    10.563619    17.219771
 H    13.043771    10.718181    18.784646
 H    15.365729    10.035520    18.062873
 H    15.694890     9.223605    15.745795
 H    15.134959     8.793184    13.741053
 H    13.914390     8.136222    11.926823
 H    12.318355     7.406319    10.727406
 H     9.958844     7.125687    10.027079
 H     8.141061     8.079406    11.498319
 H     8.727536     9.233777    13.548928
 H     5.970654     8.084884    18.724437
