   70
FINAL HEAT OF FORMATION = -1616.066575
 H     6.165500     5.848506    23.077786
 C     7.929666     4.532009    25.442669
 C     8.122681     5.920812    25.514153
 C     7.178505     6.699415    24.820939
 C     7.334895     8.077636    24.865495
 C     6.689093     4.292754    24.589812
 C     6.189013     5.734511    24.176444
 H     6.637211     8.744879    24.348723
 H     6.919492     3.679075    23.700472
 H     5.910291     3.744609    25.149828
 H     5.157083     5.914274    24.527774
 H    12.596994     8.051919    22.934140
 C    10.115798     5.705035    26.909515
 C     9.931570     4.323303    26.844079
 C     8.844798     3.733599    26.115007
 C     8.423278     8.664875    25.595352
 C     9.343438     7.877053    26.272560
 C     9.178543     6.489330    26.222628
 C    11.168406     6.596599    27.602660
 C    11.125502     6.400422    29.138568
 C    10.208698     5.504159    29.724631
 C    10.077450     5.342978    31.104231
 C    10.855368     6.110774    31.972123
 C    11.762989     7.010039    31.426764
 C    11.938956     7.152890    30.032180
 C    12.980222     8.087154    29.624202
 C    13.752590     8.035497    28.520149
 C    13.736474     7.032648    27.462978
 C    14.978038     6.794876    26.831920
 C    15.138338     5.824183    25.851142
 C    14.023082     5.079290    25.464823
 C    12.781013     5.332515    26.047627
 C    12.585675     6.302790    27.051389
 C    10.579328     8.248837    27.113022
 C    10.031428     9.009542    28.346451
 C     8.883543     8.429821    28.933850
 C     8.245036     8.939028    30.061170
 C    12.552412     8.632246    23.860586
 C    11.697229     8.229638    24.882543
 C    11.576862     8.899264    26.121842
 H    10.623087     3.647475    27.355908
 H     8.761635     2.641833    26.106371
 H     9.542996     4.924127    29.089586
 H     9.344142     4.630348    31.494755
 H    10.753009     6.013691    33.057312
 H    12.383210     7.621774    32.089440
 H    13.220965     8.863847    30.358584
 H    14.558334     8.774391    28.447049
 H    15.839694     7.390334    27.149757
 H    16.116965     5.654671    25.391697
 H    14.106112     4.312308    24.688335
 H    11.930945     4.765382    25.675359
 H     8.465952     7.525044    28.495066
 H     7.367421     8.424022    30.463193
 H    11.098018     7.338277    24.703745
 H    14.024041    10.111848    23.249096
 C     8.736482    10.097663    30.664658
 C     9.856107    10.699769    30.111068
 C    10.522176    10.193135    28.964504
 C    11.663475    10.996679    28.550692
 C    12.431921    10.941254    27.445883
 C    12.382515    10.059772    26.288269
 C    13.246166    10.457079    25.234145
 C    13.343825     9.768686    24.034521
 H     8.514475     9.755252    25.607499
 H     8.255257    10.523847    31.550172
 H    10.251345    11.612699    30.566996
 H    11.908589    11.802979    29.251239
 H    13.210992    11.709052    27.378762
 H    13.854120    11.354302    25.385490
