  212
FINAL HEAT OF FORMATION = -3350.366419
 C     0.854018    -0.006729     0.012112
 C    -0.854662     0.006446    -0.012055
 C     1.494864     0.316168    -1.399896
 C    -1.495188    -0.316454     1.400020
 C    -1.456230     1.406770    -0.441135
 C     1.455341    -1.407069     0.441606
 C     1.451342     1.061433     1.015331
 C    -1.452185    -1.061406    -1.015430
 C     1.064641     1.124929     2.370351
 C    -1.065676    -1.124271    -2.370501
 C    -1.104029    -1.431642     2.177134
 C     1.103219     1.430696    -2.177678
 C     1.077861    -2.615828    -0.177412
 C    -1.077831     2.615725     0.176863
 C     2.512127     1.899071     0.629659
 C    -2.512813    -1.899356    -0.630000
 C    -2.605364     0.406895     1.860912
 C     2.606028    -0.406285    -1.859881
 C     2.535707    -1.477100     1.339866
 C    -2.537450     1.476583    -1.338406
 C     1.656409     2.004543     3.290651
 C    -1.657364    -2.003596    -3.291100
 C    -1.759551    -1.793348     3.361021
 C     1.759120     1.792606    -3.361301
 C     1.713020    -3.839790     0.091198
 C    -1.713081     3.839681    -0.091637
 C     3.164184     2.770821     1.521197
 C    -3.164753    -2.770917    -1.521809
 C    -3.318071     0.064342     3.028489
 C     3.319190    -0.063428    -3.027079
 C     3.226101    -2.670948     1.617039
 C    -3.227732     2.670456    -1.615634
 C     2.704991     2.825465     2.841778
 C    -2.705693    -2.824965    -2.842474
 C    -2.870924    -1.030577     3.767844
 C     2.871571     1.030875    -3.767067
 C     2.791035    -3.844213     0.990101
 C    -2.791896     3.843925    -0.989569
 H     0.287716     0.457172     2.726859
 H    -0.288809    -0.456344    -2.726807
 H    -0.270932    -2.037663     1.841264
 H     0.269149     2.035894    -1.842778
 H     0.275161    -2.605439    -0.907931
 H    -0.273929     2.605656     0.906065
 H     2.873417     1.860637    -0.394419
 H    -2.873936    -1.861476     0.394151
 H    -2.962825     1.255830     1.284697
 H     2.963951    -1.254686    -1.283177
 H     2.884175    -0.566452     1.820352
 H    -2.886370     0.565812    -1.818348
 C     1.213026     2.004079     4.773192
 C    -1.213548    -2.002593    -4.773481
 C    -1.330519    -3.001388     4.223544
 C     1.329404     2.999978    -4.224424
 C     1.234807    -5.131240    -0.612967
 C    -1.233195     5.131471     0.610757
 C     4.383165     3.587228     1.035164
 C    -4.383048    -3.588307    -1.035713
 C    -4.568365     0.879134     3.425679
 C     4.570087    -0.877647    -3.423499
 C     4.441462    -2.648154     2.570911
 C    -4.443400     2.647638    -2.569111
 H     3.184277     3.503803     3.543407
 H    -3.184703    -3.503345    -3.544253
 H    -3.396566    -1.314887     4.679152
 H     3.397641     1.315448    -4.678046
 H     3.305382    -4.779058     1.197483
 H    -3.306053     4.778828    -1.197150
 C     5.190902    -0.392279    -4.747731
 C    -5.187781     0.394925     4.750993
 C    -5.086444     4.038194    -2.735967
 C     5.085694    -4.038328     2.736401
 C     4.933975     4.526206     2.126059
 C    -4.933414    -4.527473    -2.126669
 C     5.639530    -0.736732    -2.313838
 C    -5.638961     0.737257     2.317246
 C    -5.521137     1.690417    -2.006316
 C     5.518491    -1.689377     2.009403
 C     5.511500     2.606351     0.633543
 C    -5.512043    -2.608407    -0.633539
 C     4.200954    -2.369487    -3.589063
 C    -4.199145     2.371126     3.589621
 C    -4.003512     2.155180    -3.966288
 C     4.000841    -2.157592     3.968520
 C     4.004918     4.453139    -0.188181
 C    -4.003763    -4.454196     0.187325
 C     1.015058     2.525479    -5.663496
 C    -1.012668    -2.526927     5.661859
 C    -2.036346     6.372964     0.175835
 C     2.035916    -6.373151    -0.175458
 C     1.719860     3.247414     5.533394
 C    -1.722027    -3.244502    -5.534878
 C     0.076924     3.701687    -3.671932
 C    -0.080441    -3.705612     3.668869
 C     0.253639     5.383939     0.274541
 C    -0.253291    -5.383231    -0.281988
 C    -0.326377     1.977336     4.894220
 C     0.325969    -1.978156    -4.893804
 C     2.479302     4.034719    -4.271980
 C    -2.482145    -4.034084     4.273629
 C    -1.384797     4.980335     2.141347
 C     1.391863    -4.979859    -2.142990
 C     1.792619     0.746983     5.463248
 C    -1.790954    -0.743998    -5.462665
 H     0.703258     3.381105    -6.290574
 H    -0.701698    -3.382908     6.288872
 H    -1.647442     7.266572     0.696016
 H     1.648034    -7.266594    -0.696680
 H     1.322391     3.240570     6.564036
 H    -1.324466    -3.237259    -6.565483
 H     1.889628     2.059229    -6.149114
 H    -1.885426    -2.058444     6.148606
 H    -3.107309     6.284589     0.429727
 H     3.107688    -6.285524    -0.426165
 H     2.820436     3.272955     5.611993
 H    -2.822633    -3.268423    -5.613564
 H     0.195502     1.785246    -5.665477
 H    -0.191495    -1.788489     5.662059
 H    -1.954093     6.560252    -0.909263
 H     1.950297    -6.560181     0.909430
 H     1.387910     4.184255     5.051401
 H    -1.391428    -4.182261    -5.053743
 H     2.189829     4.905455    -4.889178
 H    -2.192813    -4.905283     4.890230
 H    -1.032062     5.893569     2.655884
 H     1.039619    -5.892424    -2.659049
 H     1.484404     0.707275     6.524921
 H    -1.481903    -0.703618    -6.524067
 H     2.722348     4.401044    -3.258618
 H    -2.728013    -4.400052     3.260817
 H    -0.797660     4.130307     2.526387
 H     0.807307    -4.128808    -2.529725
 H     1.441421    -0.177052     4.973006
 H    -1.438945     0.179089    -4.971207
 H     3.401101     3.609673    -4.705880
 H    -3.402288    -3.607536     4.709544
 H    -2.440587     4.817970     2.421806
 H     2.448837    -4.818908    -2.419765
 H     2.896575     0.748396     5.427948
 H    -2.894938    -0.743997    -5.428196
 H    -0.199253     4.545764    -4.329263
 H     0.195062    -4.550374     4.325604
 H     0.616280     6.293894     0.788217
 H    -0.614197    -6.293341    -0.796606
 H    -0.621800     1.980961     5.959520
 H     0.621896    -1.981652    -5.958963
 H    -0.789476     3.021106    -3.619257
 H     0.787316    -3.026908     3.614814
 H     0.395474     5.529885    -0.811229
 H    -0.399039    -5.528744     0.803317
 H    -0.778971     2.862661     4.414961
 H     0.776959    -2.864463    -4.414819
 H     0.243652     4.108849    -2.661027
 H    -0.249783    -4.112231     2.658167
 H     0.893223     4.543298     0.589482
 H    -0.891728    -4.542709    -0.599541
 H    -0.773120     1.081530     4.433677
 H     0.773861    -1.083295    -4.432522
 H     6.073578    -1.009351    -4.993397
 H    -6.069880     1.012553     4.997333
 H    -5.949375     3.968785    -3.422158
 H     5.948495    -3.968879     3.422752
 H     5.792427     5.096175     1.727950
 H    -5.791293    -5.098231    -1.728454
 H     4.482217    -0.476949    -5.590399
 H    -4.477999     0.479826     5.592716
 H    -4.381170     4.771067    -3.165665
 H     4.381032    -4.772264     3.165286
 H     4.177028     5.257101     2.461246
 H    -4.175964    -5.257672    -2.462238
 H     5.529612     0.656840    -4.686784
 H    -5.527064    -0.654071     4.691171
 H    -5.458303     4.440031    -1.777061
 H     5.457981    -4.438852     1.777112
 H     5.290578     3.970265     3.010790
 H    -5.290722    -3.971617    -3.011168
 H     6.546937    -1.312711    -2.574853
 H    -6.546159     1.313374     2.578707
 H    -6.400540     1.661852    -2.676331
 H     6.397725    -1.660798     2.679638
 H     6.404058     3.161902     0.289965
 H    -6.404053    -3.164750    -0.289814
 H     5.933176     0.320161    -2.180542
 H    -5.932635    -0.319771     2.185079
 H    -5.863181     2.023807    -1.009939
 H     5.861025    -2.021356     1.012715
 H     5.810631     1.976473     1.490775
 H    -5.811943    -1.978596    -1.490547
 H     5.273539    -1.107937    -1.341125
 H    -5.273922     1.107703     1.343891
 H    -5.144762     0.658218    -1.903139
 H     5.141253    -0.657380     1.907294
 H     5.198181     1.933428    -0.183203
 H    -5.199029    -1.935411     0.183267
 H     5.094905    -2.958489    -3.866335
 H    -5.092867     2.960246     3.867370
 H    -4.868843     2.117398    -4.654015
 H     4.865979    -2.119837     4.656494
 H     4.890088     5.004941    -0.555118
 H    -4.888308    -5.007041     0.554198
 H     3.793228    -2.798571    -2.658646
 H    -3.792490     2.799568     2.658437
 H    -3.563279     1.145486    -3.925438
 H     3.559808    -1.148221     3.928657
 H     3.622330     3.843970    -1.024440
 H    -3.621734    -3.844844     1.023710
 H     3.443262    -2.504796    -4.381375
 H    -3.440645     2.507147     4.381030
 H    -3.249772     2.833173    -4.405374
 H     3.247570    -2.836684     4.406703
 H     3.228184     5.192883     0.073513
 H    -3.226239    -5.193015    -0.074661
