   66
FINAL HEAT OF FORMATION = -2157.771291
Cl     9.397967     8.759922     3.405489
Cl     4.393173    10.600869    -0.006068
 C     7.058327    10.618568     0.649625
 C     7.679093    11.921978     0.135833
 C     9.150629    11.256398     0.805875
 C     8.185104    10.218367     1.406026
 C     8.092365     9.183077     2.308156
 C     6.870247     8.430004     2.398744
 C     6.731207     7.304325     3.258187
 C     5.551124     6.592783     3.328292
 C     4.441154     6.978299     2.542766
 C     4.534599     8.069114     1.703411
 C     5.736231     8.823170     1.598979
 C     5.846827     9.978120     0.753124
 C     6.947024    13.102542     0.874850
 C     6.173107    12.874481     2.032591
 C     5.459880    13.894464     2.666343
 C     5.484771    15.196468     2.162678
 C     6.230779    15.449536     1.011296
 C     6.936540    14.420878     0.378467
 C     7.653514    12.233327    -1.367061
 C     6.710881    11.650742    -2.230032
 C     6.663100    11.975710    -3.589000
 C     7.560066    12.899934    -4.129908
 C     8.501658    13.496776    -3.287702
 C     8.541751    13.168404    -1.929262
 C     9.970045    12.201714     1.825398
 C    10.279370    13.580072     1.193691
 C    11.329966    11.638373     2.325748
 C     9.182187    12.464735     3.135654
 C    10.070305    10.432405    -0.288017
 C     9.257527     9.737229    -1.417768
 C    11.147599    11.275723    -1.012339
 C    10.795609     9.237660     0.397136
 H     7.586320     7.003817     3.865077
 H     5.477202     5.727460     3.993927
 H     3.506489     6.412168     2.598661
 H     3.678276     8.370368     1.098070
 H     6.130340    11.880678     2.477020
 H     4.877434    13.659909     3.562927
 H     4.923537    15.997418     2.653717
 H     6.260058    16.456188     0.582253
 H     7.470397    14.671119    -0.536046
 H     6.004677    10.916667    -1.847718
 H     5.916788    11.493659    -4.228553
 H     7.526122    13.152930    -5.194124
 H     9.215543    14.224634    -3.686447
 H     9.286349    13.653935    -1.299094
 H     9.366064    14.124858     0.917473
 H    10.927766    13.506358     0.308034
 H    10.812121    14.204364     1.933622
 H    12.066837    11.461796     1.531252
 H    11.772725    12.388740     3.004623
 H    11.207809    10.713206     2.907540
 H     9.827668    13.032093     3.829746
 H     8.904704    11.528038     3.645051
 H     8.276922    13.061582     2.985243
 H     8.353614     9.226081    -1.050107
 H     8.966795    10.417349    -2.225952
 H     9.900438     8.962227    -1.871059
 H    10.720252    12.120681    -1.567669
 H    11.649711    10.629618    -1.755075
 H    11.932434    11.658197    -0.344602
 H    11.506027     8.805595    -0.330012
 H    11.366109     9.490801     1.294738
 H    10.087343     8.437398     0.662887
