   66
FINAL HEAT OF FORMATION = -2157.787688
Cl    14.093777     3.500276     8.074353
Cl    20.062002     5.560076     8.883309
 C    18.158501     3.582696     8.510955
 C    18.788104     2.202791     8.230401
 C    17.206265     1.629046     8.443482
 C    16.821167     3.119495     8.373955
 C    15.762883     3.999025     8.329891
 C    16.005517     5.406672     8.500156
 C    14.955191     6.366825     8.484879
 C    15.202633     7.710433     8.676543
 C    16.523084     8.162513     8.893468
 C    17.567762     7.261606     8.909748
 C    17.352786     5.868497     8.713780
 C    18.432760     4.918625     8.696339
 C    19.866389     1.669990     9.181472
 C    20.432313     2.471324    10.187791
 C    21.450136     2.000790    11.025004
 C    21.939157     0.701388    10.883757
 C    21.384567    -0.120843     9.899073
 C    20.367132     0.357377     9.069545
 C    19.379641     2.255163     6.691280
 C    18.541009     3.172835     5.768650
 C    20.809424     2.849437     6.749022
 C    19.509615     0.909080     5.937822
 C    16.680021     0.665671     7.377236
 C    15.729737     1.055618     6.418883
 C    15.240948     0.162599     5.458152
 C    15.691120    -1.158123     5.425881
 C    16.648503    -1.565627     6.359731
 C    17.134565    -0.666635     7.311206
 C    16.780303     1.101229     9.940034
 C    17.101088     2.130795    11.050095
 C    15.247500     0.885085     9.965258
 C    17.392212    -0.249293    10.386383
 H    13.934488     6.019707     8.321834
 H    14.373150     8.423823     8.661373
 H    16.720869     9.227538     9.047732
 H    18.586665     7.613869     9.072956
 H    20.083479     3.492541    10.328060
 H    21.860547     2.664197    11.792908
 H    22.737413     0.331222    11.534446
 H    21.739796    -1.148815     9.775007
 H    19.946660    -0.326240     8.333633
 H    18.568250     4.229148     6.078433
 H    18.958814     3.121502     4.747319
 H    17.488554     2.858552     5.704140
 H    21.527449     2.153926     7.212826
 H    21.155161     3.046983     5.718097
 H    20.851350     3.798659     7.300411
 H    18.544266     0.498970     5.616532
 H    20.102110     1.096107     5.023837
 H    20.050465     0.136462     6.501317
 H    15.348157     2.074954     6.415743
 H    14.499313     0.510425     4.732035
 H    15.307962    -1.859966     4.678675
 H    17.032579    -2.590600     6.342940
 H    17.912007    -1.011034     7.990924
 H    18.180546     2.291614    11.180890
 H    16.622131     3.107107    10.876618
 H    16.711213     1.745013    12.008901
 H    14.685000     1.818316     9.827039
 H    14.914456     0.167582     9.197385
 H    14.965027     0.472252    10.950628
 H    17.116641    -0.414267    11.443327
 H    16.980800    -1.100966     9.824188
 H    18.487766    -0.278616    10.331810
