   66
FINAL HEAT OF FORMATION = -1139.882047
 N     5.735537     7.808570     3.943504
 C     5.593942     7.143943     2.667740
 C     4.826663     8.710576     4.484275
 C     5.071173     5.836409     2.590548
 C     4.959138     5.229044     1.328253
 H     4.543421     4.216752     1.273305
 C     6.071939     7.787589     1.497383
 C     5.952882     7.132036     0.268519
 H     6.323158     7.634049    -0.631927
 C     5.378136     5.857653     0.154949
 C     4.658212     5.032573     3.800574
 H     4.957945     5.521430     4.736652
 H     5.118590     4.028545     3.766530
 H     3.563077     4.883702     3.826788
 B     3.172789     8.195075     4.728542
 H     2.841845     7.136174     4.271250
 B     5.005681    10.381822     4.531875
 H     5.990621    10.819131     3.997316
 C     5.222082     5.196988    -1.194155
 H     6.118267     5.343344    -1.823035
 H     4.364653     5.624525    -1.748550
 H     5.044691     4.112399    -1.097502
 C     6.720983     9.150993     1.545743
 H     5.987553     9.945334     1.765789
 H     7.193302     9.389303     0.578760
 H     7.502281     9.217161     2.323953
 B     3.675995     9.570881     3.659178
 H     3.639553     9.421767     2.466366
 B     2.210701     9.704295     4.657071
 H     1.128433     9.742327     4.124641
 B     3.371705    11.070085     4.598570
 H     3.133542    12.106424     4.027270
 H     6.695754     7.996020     4.219618
 N     4.265357     6.961012     6.794329
 C     4.912783     6.751409     8.069616
 C     3.939101     8.198999     6.252786
 C     6.306459     6.549487     8.145762
 C     6.889234     6.342559     9.407680
 H     7.973699     6.195691     9.461874
 C     4.117158     6.659729     9.240545
 C     4.745138     6.434715    10.468977
 H     4.125830     6.365387    11.369854
 C     6.136157     6.294502    10.581542
 C     7.208128     6.504654     6.935064
 H     6.633942     6.483762     5.999658
 H     7.851297     5.606830     6.971730
 H     7.880847     7.381428     6.904839
 B     5.212482     9.373417     6.008169
 H     6.294766     9.131408     6.466353
 B     2.402106     8.879239     6.203982
 H     1.530890     8.245134     6.738773
 C     6.787176     6.098892    11.930178
 H     6.212479     5.396086    12.559341
 H     6.846372     7.055114    12.484667
 H     7.814937     5.709831    11.832787
 C     2.611953     6.779940     9.192884
 H     2.291122     7.811543     8.969074
 H     2.169944     6.493919    10.161253
 H     2.163196     6.133498     8.417476
 B     3.768739     9.626261     7.076605
 H     3.915630     9.584204     8.269525
 B     4.385814    10.961282     6.077863
 H     4.893593    11.918078     6.609785
 B     2.622787    10.638350     6.135752
 H     1.843993    11.363111     6.706122
 H     3.621444     6.223807     6.519864
