   58
FINAL HEAT OF FORMATION = -1978.417976
 I    -0.373414     0.567388     4.650341
 I    -0.408804    -4.568442    -0.288868
 C     0.812498    -2.935530     4.396180
 C     0.840057    -4.172902     3.178970
 C     0.101564    -3.143124     2.346820
 C    -0.457403    -2.964427     1.109645
 C    -1.053492    -1.689329     0.811445
 C    -1.659448    -1.405413    -0.443754
 C    -2.226150    -0.178475    -0.719694
 C    -2.215819     0.840865     0.258067
 C    -1.639300     0.610085     1.489752
 C    -1.043380    -0.638652     1.819681
 C    -0.441202    -0.891506     3.101700
 C     0.107224    -2.125990     3.326051
 C     0.066052    -3.295787     5.668809
 C    -1.295189    -3.491498     5.887424
 C    -1.740220    -3.843050     7.170833
 C    -0.830303    -3.991994     8.223964
 C     0.533887    -3.747010     8.022326
 C     0.973531    -3.378193     6.748971
 C     2.281710    -2.889015     6.291719
 C     3.462551    -2.655978     7.000167
 C     4.519451    -1.998121     6.358646
 C     4.382004    -1.559173     5.036762
 C     3.202826    -1.811032     4.319318
 C     2.166038    -2.508118     4.934991
 C     0.183346    -5.488385     3.557538
 C    -1.157328    -5.797967     3.773724
 C    -1.509159    -7.104441     4.145095
 C    -0.528137    -8.091442     4.294798
 C     0.816049    -7.799929     4.031149
 C     1.163202    -6.504152     3.642497
 C     2.433360    -5.966584     3.135189
 C     3.656125    -6.596463     2.892574
 C     4.659416    -5.891397     2.215879
 C     4.428508    -4.585709     1.767441
 C     3.206841    -3.946903     2.028601
 C     2.223684    -4.624633     2.745021
 H    -1.669574    -2.190142    -1.202974
 H    -2.683077     0.002519    -1.697202
 H    -2.664666     1.814783     0.041114
 H    -1.634049     1.401118     2.242460
 H    -2.018745    -3.346984     5.082249
 H    -2.809128    -3.994661     7.349426
 H    -1.190668    -4.273890     9.218210
 H     1.236336    -3.814399     8.858607
 H     3.553096    -2.954113     8.049090
 H     5.448128    -1.801477     6.903411
 H     5.197832    -1.008824     4.558244
 H     3.098412    -1.434516     3.300319
 H    -1.936765    -5.047774     3.629956
 H    -2.561589    -7.353052     4.312519
 H    -0.816498    -9.104330     4.592745
 H     1.575180    -8.584958     4.100245
 H     3.820488    -7.634475     3.197258
 H     5.619834    -6.374752     2.011377
 H     5.203452    -4.059313     1.201897
 H     3.027525    -2.940233     1.645074
