   62
FINAL HEAT OF FORMATION = -6532.943346
Br     5.985702     2.846289     5.816696
Br     0.292562    -0.574167     6.527335
 C     4.020708     0.802418     3.562646
 C     2.459128     0.079663     3.698074
 C     2.558303     0.520068     5.158909
 C     1.904672     0.437577     6.362314
 C     2.470358     1.108927     7.500460
 C     1.851398     1.090488     8.781264
 C     2.393639     1.762399     9.857012
 C     3.593701     2.493124     9.704615
 C     4.228407     2.533483     8.480593
 C     3.706447     1.851920     7.346163
 C     4.368902     1.860837     6.070597
 C     3.804365     1.164226     5.032208
 C     5.113787    -0.227912     3.293293
 C     5.083175    -0.993963     2.112593
 C     6.074645    -1.934670     1.830223
 C     7.126336    -2.140109     2.729975
 C     7.167894    -1.395232     3.909771
 C     6.171168    -0.451685     4.187147
 C     4.136553     2.049175     2.670047
 C     3.389694     3.202808     2.981213
 C     3.477822     4.360677     2.208285
 C     4.327342     4.404767     1.098074
 C     5.089165     3.278448     0.783445
 C     4.998037     2.118701     1.561877
 C     2.385171    -1.449758     3.556937
 C     3.081411    -2.269888     4.466927
 C     3.027933    -3.661416     4.384971
 C     2.264990    -4.280666     3.389678
 C     1.553665    -3.486091     2.489316
 C     1.609694    -2.090139     2.575317
 C     1.409801     0.806999     2.862095
 C     0.290947     1.428074     3.436226
 C    -0.663462     2.078245     2.644359
 C    -0.517092     2.124097     1.256915
 C     0.596736     1.515548     0.668031
 C     1.545628     0.870320     1.462374
 H     0.922096     0.530514     8.899809
 H     1.891316     1.729429    10.828488
 H     4.022600     3.027237    10.557819
 H     5.157470     3.094652     8.365915
 H     4.262065    -0.863924     1.403402
 H     6.018979    -2.517381     0.905456
 H     7.903325    -2.879857     2.513294
 H     7.981002    -1.544612     4.627196
 H     6.229601     0.117600     5.115646
 H     2.721697     3.200080     3.844884
 H     2.878765     5.235665     2.479279
 H     4.400659     5.312599     0.491033
 H     5.773211     3.297446    -0.071094
 H     5.624926     1.265875     1.300011
 H     3.681470    -1.815280     5.257782
 H     3.585772    -4.264993     5.107759
 H     2.218886    -5.372282     3.324280
 H     0.936733    -3.950484     1.713270
 H     1.022841    -1.501575     1.869591
 H     0.150212     1.405867     4.517565
 H    -1.526526     2.551597     3.123128
 H    -1.261046     2.634320     0.637166
 H     0.734504     1.550895    -0.417144
 H     2.416510     0.418129     0.981687
