   23
FINAL HEAT OF FORMATION =  -739.573035
 C     7.879784     5.699354     9.892643
 C     8.071084     6.985329    10.380978
 C     7.049806     7.929531    10.237572
 C     5.857689     7.555124     9.604425
 C     5.719248     6.258227     9.135540
 N     6.720788     5.356020     9.283602
 C     6.528032     3.983492     8.768521
 C     7.561206     2.838456     8.845965
 C     5.425293     2.989688     9.216313
 C     6.243159     3.597202     7.293901
 C     6.291941     2.283438     8.130486
 I     6.026366     0.306598     7.395621
 H     8.636006     4.916685     9.972409
 H     9.016356     7.235737    10.868419
 H     7.179721     8.947935    10.614863
 H     5.035363     8.262334     9.472183
 H     4.817725     5.901646     8.633667
 H     7.776047     2.420788     9.842613
 H     8.465155     2.933187     8.223231
 H     4.387715     3.226937     8.931948
 H     5.500260     2.594397    10.241399
 H     7.060963     3.754001     6.573292
 H     5.260096     3.874794     6.881311
