   28
FINAL HEAT OF FORMATION =  -442.445336
 B     0.377768     6.646970     5.265061
 H     0.868953     6.063975     6.199897
 B    -2.001046     7.599202     3.943433
 H    -3.195476     7.669775     3.797018
 B    -1.217572     6.166260     4.643744
 H    -1.846312     5.203590     5.005902
 B    -0.947628     8.096564     2.572565
 H    -1.383895     8.463203     1.510788
 B     0.263768     5.889938     3.658691
 H     0.622656     4.790541     3.320217
 B     0.562162     8.413930     4.996669
 H     1.190634     9.125823     5.740746
 B     1.406645     7.247816     3.945080
 H     2.586957     7.041016     3.835794
 B     0.620702     8.680612     3.232055
 H     1.233964     9.510451     2.612782
 B    -1.026977     7.757290     5.426573
 H    -1.559655     7.986296     6.484590
 B    -0.896616     8.980406     4.114456
 H    -1.330374    10.101978     4.209411
 C     0.501390     7.161507     2.530534
 C    -1.205574     6.463687     2.992038
 N     1.010785     6.829276     1.289535
 N    -1.778375     5.660226     2.003621
 H    -1.895512     4.684320     2.268535
 H    -2.618946     6.047354     1.579536
 H     0.580166     7.269631     0.482162
 H     1.280507     5.860863     1.145867
