   72
FINAL HEAT OF FORMATION = -1218.449578
 N    10.494436     9.144270     2.250257
 N     8.475545     6.672115     1.473629
 C    12.512194    11.895174    -0.666684
 H    12.755561    11.773415    -1.727932
 C    11.455677    11.150885    -0.125810
 C     6.928650     6.075135    -0.350718
 C    11.134632    11.295386     1.243617
 C     9.978280     8.405928     3.291290
 C    10.009877    10.473098     1.846991
 H     9.589348    10.983737     2.726118
 H     9.183879    10.364428     1.122815
 C    13.265594    12.783785     0.110340
 B     7.680540     6.740533     4.075263
 C     8.747156     6.862145     2.806281
 B     8.289758     8.368661     3.547289
 C     6.147289     3.931309    -1.186197
 H     5.720664     2.941756    -0.988223
 C    11.892985    12.175295     2.049904
 C     7.226743     6.464693    -1.675046
 C    12.940176    12.902922     1.466617
 H    13.523957    13.582125     2.097201
 C     7.208531     7.011598     0.812058
 H     7.229213     8.059424     0.468916
 H     6.400300     6.943776     1.556472
 B     9.471633     8.955091     4.788483
 B    10.384688     6.720540     3.280212
 C     6.380765     4.791237    -0.106749
 B     8.080600     7.981206     5.282286
 C     6.975144     5.570163    -2.727073
 H     7.208241     5.881454    -3.750983
 C     6.438373     4.298119    -2.507303
 B     9.079894     5.647662     3.916546
 B    10.869921     7.868643     4.592713
 C    14.378004    13.602174    -0.502098
 H    13.984096    14.529814    -0.960767
 H    14.901397    13.043989    -1.298033
 H    15.124173    13.902588     0.253350
 C    10.677235    10.210424    -1.020289
 H    11.168720    10.100204    -2.001105
 H     9.650953    10.579789    -1.206475
 H    10.579991     9.205254    -0.574931
 B     8.636167     6.285913     5.515695
 C     7.798458     7.829063    -1.997939
 H     8.077675     7.894112    -3.062580
 H     8.699825     8.054329    -1.403049
 H     7.070237     8.638304    -1.800641
 B     9.718630     7.614066     5.932786
 C     6.026911     4.334620     1.291175
 H     5.661449     3.294725     1.284144
 H     5.231901     4.961050     1.736836
 H     6.890058     4.383685     1.977352
 B    10.356242     6.218152     4.998590
 C     6.188125     3.339040    -3.647436
 H     6.875339     2.473045    -3.600618
 H     6.331850     3.826008    -4.626706
 H     5.159821     2.935177    -3.616229
 C    11.605312    12.352956     3.525170
 H    12.352346    13.015370     3.992448
 H    11.620648    11.393544     4.071628
 H    10.610719    12.804256     3.699879
 H     7.602800     9.115528     2.902947
 H     8.988080     4.522745     3.494776
 H    11.167475     6.358747     2.437252
 H    10.046705     7.848583     7.070479
 H     6.548817     6.424552     3.813572
 H    12.011772     8.252988     4.640330
 H     8.161718     5.551539     6.347941
 H     7.201555     8.474597     5.945766
 H     9.569082    10.138103     4.990240
 H    11.157302     5.436678     5.450406
 H    11.453583     8.931017     1.996097
 H     9.104089     6.061665     0.962957
