   55
FINAL HEAT OF FORMATION = -1020.809807
 B     0.347565     0.729801    12.658345
 H    -0.838168     0.912316    12.624244
 B     1.251221     0.311893    14.101586
 H     0.648031     0.092963    15.119843
 B     2.727926     1.332294    14.166364
 H     3.115940     1.748665    15.225812
 B     2.808521     2.384167    12.751266
 H     3.085411     3.550020    12.796841
 B     2.822276     1.421499    11.283325
 H     3.243582     1.909798    10.266646
 B     1.323118     0.429098    11.223678
 H     0.768680     0.260043    10.169488
 B     1.344370    -0.699502    12.625832
 H     0.820978    -1.784475    12.565968
 B     3.748186     0.923144    12.741011
 H     4.951437     0.993591    12.785579
 B     2.861081    -0.291120    11.772464
 H     3.442403    -1.107833    11.101658
 B     2.813865    -0.354353    13.573808
 H     3.370027    -1.208763    14.218489
 N     0.469722     3.043599    13.914856
 N     0.604329     3.169277    11.547138
 C     1.269343     1.940506    13.511413
 C     1.330702     2.000701    11.907525
 C    -0.153977     3.639181    12.727507
 H    -0.124142     4.739331    12.797373
 H    -1.219176     3.335474    12.639019
 C    -0.110246     3.189519    10.277426
 H    -1.030776     2.567189    10.321291
 H     0.550392     2.729237     9.523188
 C    -0.470208     4.598763     9.840234
 C     0.494939     5.619223     9.850805
 H     1.504096     5.397183    10.211456
 C     0.173972     6.905890     9.411868
 H     0.936904     7.690814     9.425122
 C    -1.117786     7.192005     8.953550
 H    -1.368815     8.200311     8.609719
 C    -2.085149     6.183711     8.940572
 H    -3.098851     6.398437     8.588058
 C    -1.761916     4.896486     9.384898
 H    -2.526488     4.112143     9.376843
 C     0.952906     3.948703    14.954717
 H     1.706454     4.662200    14.560541
 H     1.467520     3.329451    15.707779
 C    -0.171933     4.717058    15.625984
 C    -0.033501     6.086281    15.893847
 H     0.876808     6.609122    15.580732
 C    -1.044325     6.792026    16.556084
 H    -0.919266     7.860748    16.756617
 C    -2.212116     6.134837    16.952763
 H    -3.006102     6.685245    17.467108
 C    -2.362345     4.768994    16.684387
 H    -3.274781     4.247607    16.990908
 C    -1.350089     4.065975    16.026633
 H    -1.470649     2.999327    15.814195
