   66
FINAL HEAT OF FORMATION = -1538.929626
 C     8.022874    12.035466    17.373932
 C     7.932089    11.484046    18.639237
 C     7.529628    11.907568    21.107396
 H     8.199968    11.383845    16.512778
 H     8.034702    10.403878    18.780279
 H     7.618702    10.846008    21.356881
 C     7.671142    14.287576    18.216782
 C     7.891448    13.431482    17.150026
 C     7.688553    12.322662    19.758123
 C     7.249128    12.839847    22.091785
 C     7.115030    14.224407    21.800971
 C     7.283480    14.647556    20.502062
 C     7.567024    13.712693    19.500480
 C     7.529431    15.807955    18.250239
 C     6.399451    16.331857    17.344175
 C     5.656862    15.475653    16.514972
 C     4.531239    15.903004    15.812098
 C     4.087810    17.219809    15.940938
 C     4.814004    18.091520    16.741901
 C     5.985381    17.687822    17.413697
 C     6.686107    18.722687    18.156539
 C     8.013567    18.809876    18.374758
 C     9.037984    17.883189    17.919882
 C     8.838749    16.485346    17.778172
 C     7.168974    16.046025    19.910701
 C     5.676844    16.388613    20.064066
 C     4.798112    15.413864    19.542149
 C     3.416088    15.558047    19.527750
 C     2.841021    16.703878    20.080138
 C     3.677359    17.659016    20.636834
 C     5.089304    17.532190    20.649011
 C     5.787042    18.629626    21.301978
 C     7.089452    18.819052    21.594682
 C     8.265404    18.002958    21.337728
 C     8.308072    16.798269    20.605552
 H     7.977681    13.805188    16.127365
 H     7.118140    12.501066    23.123630
 H     6.875768    14.932308    22.597120
 H     5.914126    14.420942    16.453287
 H     3.979629    15.188955    15.193133
 H     3.184675    17.561280    15.426761
 H     4.484833    19.128546    16.853888
 H     6.067871    19.565258    18.480543
 H     8.381261    19.717740    18.862128
 H     5.204794    14.502632    19.107011
 H     2.795518    14.774507    19.083690
 H     1.756172    16.843901    20.085306
 H     3.240081    18.551556    21.093356
 H     5.114657    19.424862    21.641889
 H     7.313379    19.744117    22.136790
 H     9.607757    15.192885    19.971869
 C    10.293145    18.441150    17.609768
 C    11.328068    17.675181    17.089130
 C    11.116325    16.310387    16.887297
 C     9.897983    15.734666    17.241729
 C     9.471395    18.501765    21.890064
 C    10.688770    17.854163    21.743431
 C    10.726194    16.648996    21.038061
 C     9.551430    16.140804    20.503156
 H    10.433246    19.514030    17.768427
 H    12.288143    18.136460    16.841323
 H    11.909155    15.678193    16.476842
 H     9.799227    14.658370    17.129661
 H     9.424565    19.436281    22.456270
 H    11.597071    18.276989    22.181570
 H    11.662659    16.101349    20.902473
