   70
FINAL HEAT OF FORMATION = -1616.292732
 H     6.251817     6.037181    23.034189
 C     7.934415     4.637312    25.400334
 C     8.155220     6.019148    25.510185
 C     7.237027     6.826199    24.818660
 C     7.416439     8.196980    24.903322
 C     6.712427     4.436404    24.515564
 C     6.246138     5.894058    24.129083
 H     6.740454     8.889964    24.393130
 H     6.955678     3.841046    23.617434
 H     5.914026     3.885149    25.043511
 H     5.209534     6.080417    24.461100
 H    12.690877     7.760737    23.056818
 C    10.107912     5.713723    26.935347
 C     9.891395     4.340323    26.837712
 C     8.807162     3.797049    26.071712
 C     8.505079     8.737244    25.664917
 C     9.392227     7.908184    26.331151
 C     9.202399     6.534774    26.251385
 C    11.164795     6.571596    27.632766
 C    11.142853     6.375020    29.160056
 C    10.284481     5.435757    29.754816
 C    10.138244     5.328275    31.136257
 C    10.839400     6.192657    31.978762
 C    11.704039     7.122239    31.414183
 C    11.901677     7.207547    30.021352
 C    12.878496     8.181652    29.561605
 C    13.642354     8.128652    28.451301
 C    13.680644     7.084892    27.439247
 C    14.905574     6.913685    26.763263
 C    15.086482     5.920439    25.808929
 C    14.016736     5.076008    25.507619
 C    12.785027     5.264522    26.131726
 C    12.571837     6.271225    27.088551
 C    10.624914     8.191362    27.169287
 C    10.070731     8.923600    28.396372
 C     8.975841     8.272313    29.004657
 C     8.351450     8.743243    30.151324
 C    12.607985     8.401816    23.938590
 C    11.747051     8.045203    24.967698
 C    11.604313     8.796264    26.155221
 H    10.554078     3.632960    27.343143
 H     8.691948     2.709085    26.031131
 H     9.668920     4.795157    29.126546
 H     9.448149     4.585682    31.547878
 H    10.711694     6.142491    33.063774
 H    12.265346     7.804954    32.058077
 H    13.066161     9.010972    30.250275
 H    14.387974     8.919925    28.327629
 H    15.732615     7.583510    27.014610
 H    16.049373     5.807328    25.302654
 H    14.124492     4.285918    24.758360
 H    11.956100     4.635106    25.815494
 H     8.599342     7.347133    28.571145
 H     7.523734     8.177016    30.587322
 H    11.168639     7.131989    24.840256
 H    14.037298     9.885844    23.248848
 C     8.792886     9.935754    30.729098
 C     9.840574    10.616368    30.127673
 C    10.496205    10.142725    28.963722
 C    11.558811    11.002817    28.467887
 C    12.315278    10.942767    27.353448
 C    12.342370     9.995080    26.250569
 C    13.204781    10.352980    25.183907
 C    13.354620     9.576708    24.045473
 H     8.626378     9.822300    25.706356
 H     8.318285    10.332558    31.630980
 H    10.182248    11.562230    30.557367
 H    11.750802    11.867300    29.112541
 H    13.027238    11.766259    27.231732
 H    13.768974    11.285542    25.274346
