  212
scf done: -3350.964884
 C     0.830133    -0.003297     0.013870
 C    -0.830133     0.003297    -0.013870
 C     1.460880     0.318268    -1.380058
 C    -1.460880    -0.318268     1.380058
 C    -1.427041     1.384592    -0.437078
 C     1.427041    -1.384592     0.437078
 C     1.410547     1.051541     1.009054
 C    -1.410547    -1.051541    -1.009054
 C     1.018562     1.090794     2.355798
 C    -1.018562    -1.090794    -2.355798
 C    -1.053525    -1.424686     2.149011
 C     1.053525     1.424686    -2.149011
 C     1.032999    -2.583930    -0.174209
 C    -1.032999     2.583930     0.174209
 C     2.455985     1.901789     0.629213
 C    -2.455985    -1.901789    -0.629213
 C    -2.563820     0.402243     1.843140
 C     2.563820    -0.402243    -1.843140
 C     2.512712    -1.451065     1.319344
 C    -2.512712     1.451065    -1.319344
 C     1.580437     1.977652     3.279256
 C    -1.580437    -1.977652    -3.279256
 C    -1.682261    -1.779018     3.343164
 C     1.682261     1.779018    -3.343164
 C     1.653571    -3.807677     0.097854
 C    -1.653571     3.807677    -0.097854
 C     3.084954     2.775160     1.529811
 C    -3.084954    -2.775160    -1.529811
 C    -3.258292     0.056742     3.015852
 C     3.258292    -0.056742    -3.015852
 C     3.194415    -2.647025     1.590737
 C    -3.194415     2.647025    -1.590737
 C     2.613548     2.824775     2.847017
 C    -2.613548    -2.824775    -2.847017
 C    -2.798928    -1.029895     3.759561
 C     2.798928     1.029895    -3.759561
 C     2.743931    -3.822783     0.980643
 C    -2.743931     3.822783    -0.980643
 H     0.261210     0.401862     2.705903
 H    -0.261210    -0.401862    -2.705903
 H    -0.220805    -2.021557     1.806317
 H     0.220805     2.021557    -1.806317
 H     0.222945    -2.570453    -0.891655
 H    -0.222945     2.570453     0.891655
 H     2.824056     1.867358    -0.391591
 H    -2.824056    -1.867358     0.391591
 H    -2.926862     1.248637     1.269068
 H     2.926862    -1.248637    -1.269068
 H     2.871587    -0.539203     1.787559
 H    -2.871587     0.539203    -1.787559
 C     1.092114     1.933685     4.738000
 C    -1.092114    -1.933685    -4.738000
 C    -1.205326    -2.981522     4.174136
 C     1.205326     2.981522    -4.174136
 C     1.103581    -5.078112    -0.571134
 C    -1.103581     5.078112     0.571134
 C     4.311532     3.570296     1.050581
 C    -4.311532    -3.570296    -1.050581
 C    -4.497944     0.877883     3.401931
 C     4.497944    -0.877883    -3.401931
 C     4.420905    -2.603355     2.516591
 C    -4.420905     2.603355    -2.516591
 H     3.073219     3.510263     3.554691
 H    -3.073219    -3.510263    -3.554691
 H    -3.313402    -1.312448     4.676884
 H     3.313402     1.312448    -4.676884
 H     3.249539    -4.762098     1.189427
 H    -3.249539     4.762098    -1.189427
 C     5.110143    -0.416304    -4.733858
 C    -5.110143     0.416304     4.733858
 C    -5.039121     3.993849    -2.732630
 C     5.039121    -3.993849     2.732630
 C     4.833009     4.539617     2.123550
 C    -4.833009    -4.539617    -2.123550
 C     5.560809    -0.716922    -2.291846
 C    -5.560809     0.716922     2.291846
 C    -5.491420     1.688247    -1.880378
 C     5.491420    -1.688247     1.880378
 C     5.432980     2.559377     0.715844
 C    -5.432980    -2.559377    -0.715844
 C     4.115822    -2.368166    -3.534202
 C    -4.115822     2.368166     3.534202
 C    -4.013321     2.034720    -3.891831
 C     4.013321    -2.034720     3.891831
 C     3.974145     4.387705    -0.213930
 C    -3.974145    -4.387705     0.213930
 C     1.102565     2.590072    -5.663705
 C    -1.102565    -2.590072     5.663705
 C    -1.947771     6.320911     0.248991
 C     1.947771    -6.320911    -0.248991
 C     1.660690     3.090754     5.575417
 C    -1.660690    -3.090754    -5.575417
 C    -0.177122     3.479058    -3.718723
 C     0.177122    -3.479058     3.718723
 C     0.336397     5.312325     0.066806
 C    -0.336397    -5.312325    -0.066806
 C    -0.448496     2.011467     4.789759
 C     0.448496    -2.011467    -4.789759
 C     2.223763     4.130414    -4.011267
 C    -2.223763    -4.130414     4.011267
 C    -1.072923     4.890062     2.102736
 C     1.072923    -4.890062    -2.102736
 C     1.550551     0.598512     5.363988
 C    -1.550551    -0.598512    -5.363988
 H     0.718782     3.440496    -6.255501
 H    -0.718782    -3.440496     6.255501
 H    -1.521035     7.204341     0.755790
 H     1.521035    -7.204341    -0.755790
 H     1.254972     3.044960     6.601393
 H    -1.254972    -3.044960    -6.601393
 H     2.079381     2.306498    -6.090119
 H    -2.079381    -2.306498     6.090119
 H    -2.990321     6.207007     0.594356
 H     2.990321    -6.207007    -0.594356
 H     2.760537     3.043668     5.653644
 H    -2.760537    -3.043668    -5.653644
 H     0.413616     1.738219    -5.799277
 H    -0.413616    -1.738219     5.799277
 H    -1.965367     6.535882    -0.833509
 H     1.965367    -6.535882     0.833509
 H     1.387439     4.071547     5.147861
 H    -1.387439    -4.071547    -5.147861
 H     1.921807     5.008332    -4.611908
 H    -1.921807    -5.008332     4.611908
 H    -0.701635     5.807413     2.595027
 H     0.701635    -5.807413    -2.595027
 H     1.183880     0.508387     6.403138
 H    -1.183880    -0.508387    -6.403138
 H     2.291953     4.442946    -2.954432
 H    -2.291953    -4.442946     2.954432
 H    -0.407099     4.062795     2.396437
 H     0.407099    -4.062795    -2.396437
 H     1.167607    -0.263118     4.791749
 H    -1.167607     0.263118    -4.791749
 H     3.232779     3.823185    -4.337976
 H    -3.232779    -3.823185     4.337976
 H    -2.081382     4.671122     2.495760
 H     2.081382    -4.671122    -2.495760
 H     2.652243     0.529362     5.379566
 H    -2.652243    -0.529362    -5.379566
 H    -0.514225     4.303002    -4.372154
 H     0.514225    -4.303002     4.372154
 H     0.779094     6.202439     0.550957
 H    -0.779094    -6.202439    -0.550957
 H    -0.796199     1.976200     5.838286
 H     0.796199    -1.976200    -5.838286
 H    -0.932133     2.676739    -3.765514
 H     0.932133    -2.676739     3.765514
 H     0.352682     5.473538    -1.025802
 H    -0.352682    -5.473538     1.025802
 H    -0.812330     2.950791     4.340575
 H     0.812330    -2.950791    -4.340575
 H    -0.166508     3.860582    -2.685560
 H     0.166508    -3.860582     2.685560
 H     0.982021     4.447826     0.290327
 H    -0.982021    -4.447826    -0.290327
 H    -0.928740     1.177234     4.254566
 H     0.928740    -1.177234    -4.254566
 H     5.990049    -1.037461    -4.977199
 H    -5.990049     1.037461     4.977199
 H    -5.910090     3.915323    -3.406894
 H     5.910090    -3.915323     3.406894
 H     5.698200     5.102502     1.731185
 H    -5.698200    -5.102502    -1.731185
 H     4.391469    -0.511901    -5.566447
 H    -4.391469     0.511901     5.566447
 H    -4.320038     4.692309    -3.194912
 H     4.320038    -4.692309     3.194912
 H     4.061377     5.272139     2.418558
 H    -4.061377    -5.272139    -2.418558
 H     5.446948     0.633853    -4.688138
 H    -5.446948    -0.633853     4.688138
 H    -5.390382     4.438159    -1.785240
 H     5.390382    -4.438159     1.785240
 H     5.167596     4.007870     3.030923
 H    -5.167596    -4.007870    -3.030923
 H     6.470707    -1.294755    -2.537829
 H    -6.470707     1.294755     2.537829
 H    -6.388953     1.635508    -2.523723
 H     6.388953    -1.635508     2.523723
 H     6.345631     3.087165     0.382681
 H    -6.345631    -3.087165    -0.382681
 H     5.846852     0.343701    -2.174943
 H    -5.846852    -0.343701     2.174943
 H    -5.798548     2.074901    -0.892445
 H     5.798548    -2.074901     0.892445
 H     5.689681     1.951743     1.601854
 H    -5.689681    -1.951743    -1.601854
 H     5.186987    -1.071482    -1.316274
 H    -5.186987     1.071482     1.316274
 H    -5.117419     0.660342    -1.735338
 H     5.117419    -0.660342     1.735338
 H     5.127319     1.866784    -0.087297
 H    -5.127319    -1.866784     0.087297
 H     5.003392    -2.969596    -3.803085
 H    -5.003392     2.969596     3.803085
 H    -4.891650     1.971947    -4.560053
 H     4.891650    -1.971947     4.560053
 H     4.876838     4.906663    -0.584325
 H    -4.876838    -4.906663     0.584325
 H     3.707645    -2.772952    -2.593028
 H    -3.707645     2.772952     2.593028
 H    -3.582636     1.024166    -3.804690
 H     3.582636    -1.024166     3.804690
 H     3.597593     3.750020    -1.030644
 H    -3.597593    -3.750020     1.030644
 H     3.352178    -2.509711    -4.318575
 H    -3.352178     2.509711     4.318575
 H    -3.259370     2.679755    -4.375901
 H     3.259370    -2.679755     4.375901
 H     3.206253     5.149950     0.000633
 H    -3.206253    -5.149950    -0.000633
