   66
FINAL HEAT OF FORMATION = -2157.979893
Cl    14.242602     3.558775     8.575904
Cl    20.261940     5.531519     8.799999
 C    18.313196     3.631964     8.433365
 C    18.845072     2.200026     8.168587
 C    17.262181     1.697717     8.428959
 C    16.967564     3.203136     8.421923
 C    15.916745     4.078354     8.506299
 C    16.185756     5.479506     8.606685
 C    15.142644     6.440590     8.666717
 C    15.417820     7.783760     8.796105
 C    16.758094     8.221866     8.875279
 C    17.793767     7.311780     8.820836
 C    17.551947     5.919895     8.680953
 C    18.617351     4.956063     8.609092
 C    19.870328     1.671866     9.158442
 C    20.269336     2.445304    10.257678
 C    21.171845     1.960733    11.207828
 C    21.708160     0.679051    11.079114
 C    21.312464    -0.113286     9.998522
 C    20.401876     0.374228     9.062197
 C    19.369466     2.157929     6.635042
 C    18.311664     2.625397     5.604008
 C    20.558240     3.135147     6.540905
 C    19.911158     0.808545     6.110560
 C    16.656882     0.813890     7.343767
 C    15.578528     1.223845     6.546746
 C    14.989834     0.366537     5.614023
 C    15.466720    -0.934764     5.446790
 C    16.540078    -1.363436     6.230094
 C    17.117391    -0.500677     7.163130
 C    16.809983     1.050348     9.868466
 C    16.747444     2.119095    10.976993
 C    15.383576     0.453594     9.737564
 C    17.691347    -0.094965    10.412947
 H    14.111194     6.090874     8.610097
 H    14.597567     8.506024     8.838458
 H    16.977258     9.288005     8.979322
 H    18.826350     7.654717     8.879966
 H    19.862148     3.445942    10.385709
 H    21.454687     2.595553    12.052541
 H    22.419432     0.296682    11.816960
 H    21.700769    -1.130536     9.890671
 H    20.068658    -0.296995     8.275295
 H    17.676929     3.448203     5.966666
 H    18.840519     2.989220     4.705492
 H    17.653976     1.808304     5.282153
 H    21.298341     2.959933     7.338767
 H    21.065413     2.995833     5.570123
 H    20.233719     4.182856     6.592782
 H    19.210590    -0.026385     6.232954
 H    20.083727     0.921559     5.025573
 H    20.880249     0.543804     6.558010
 H    15.184166     2.232673     6.643239
 H    14.149607     0.724589     5.011470
 H    15.007806    -1.607817     4.716453
 H    16.934126    -2.378236     6.118491
 H    17.946266    -0.871164     7.762975
 H    17.684840     2.688460    11.058439
 H    15.918552     2.826042    10.822633
 H    16.576958     1.619631    11.947077
 H    14.678775     1.137841     9.248373
 H    15.380856    -0.493726     9.176977
 H    15.001336     0.243784    10.752671
 H    17.121556    -0.606247    11.209555
 H    17.935709    -0.858063     9.662303
 H    18.625820     0.261709    10.861782
