   66
FINAL HEAT OF FORMATION = -1140.062258
 N     5.812460     7.804533     4.024284
 C     5.647625     7.146213     2.758106
 C     4.873338     8.694469     4.529384
 C     5.096854     5.853509     2.693817
 C     4.905006     5.266104     1.433822
 H     4.461629     4.265650     1.387673
 C     6.082253     7.792144     1.575759
 C     5.889034     7.156667     0.348017
 H     6.223792     7.661113    -0.564353
 C     5.276324     5.899444     0.248989
 C     4.735011     5.043669     3.912269
 H     5.062394     5.534600     4.836253
 H     5.204101     4.044975     3.855894
 H     3.643394     4.883670     3.975014
 B     3.234587     8.167815     4.657359
 H     2.942191     7.108918     4.183060
 B     5.045827    10.360800     4.572751
 H     6.049189    10.798245     4.076272
 C     5.034170     5.262013    -1.097177
 H     5.932227     5.316633    -1.738076
 H     4.218828     5.777900    -1.638712
 H     4.748066     4.201477    -0.998201
 C     6.756283     9.139908     1.613795
 H     6.043745     9.943472     1.863216
 H     7.202497     9.376405     0.634529
 H     7.561366     9.183559     2.368440
 B     3.761873     9.557836     3.640542
 H     3.792544     9.408814     2.450125
 B     2.261553     9.660988     4.575620
 H     1.199465     9.688229     4.006795
 B     3.407189    11.037673     4.576325
 H     3.181961    12.077197     4.008362
 H     6.767597     8.059604     4.256898
 N     4.298627     6.938248     6.732167
 C     4.933501     6.754172     8.012800
 C     3.966286     8.175534     6.199219
 C     6.325652     6.573513     8.100224
 C     6.896059     6.376630     9.367121
 H     7.980215     6.239803     9.436033
 C     4.122213     6.661770     9.166907
 C     4.734540     6.446562    10.402484
 H     4.105683     6.370828    11.295366
 C     6.124180     6.318631    10.527822
 C     7.219567     6.535904     6.887164
 H     6.635369     6.516777     5.959084
 H     7.867315     5.641659     6.916673
 H     7.884626     7.417777     6.853042
 B     5.209137     9.366296     6.057510
 H     6.274366     9.126493     6.548612
 B     2.417539     8.815872     6.116151
 H     1.547616     8.154871     6.615609
 C     6.756952     6.123023    11.882036
 H     6.151158     5.452471    12.516250
 H     6.846535     7.086286    12.419268
 H     7.770106     5.695372    11.797515
 C     2.619520     6.764757     9.081409
 H     2.295716     7.788836     8.833020
 H     2.155393     6.486871    10.041189
 H     2.199096     6.104247     8.302278
 B     3.721377     9.583603     7.049865
 H     3.818663     9.511957     8.244240
 B     4.357458    10.932940     6.093430
 H     4.830638    11.892891     6.647995
 B     2.601798    10.579005     6.077181
 H     1.788344    11.283390     6.621077
 H     3.639182     6.208968     6.476911
