   62
FINAL HEAT OF FORMATION = -6533.139284
Br     6.052988     2.885076     5.791321
Br     0.445118    -0.609071     6.601565
 C     4.056260     0.846179     3.604516
 C     2.510822     0.123843     3.766388
 C     2.662882     0.538747     5.235808
 C     2.019036     0.451249     6.436399
 C     2.568932     1.163150     7.552449
 C     1.932246     1.173469     8.819767
 C     2.441981     1.904003     9.870542
 C     3.625223     2.656557     9.698081
 C     4.277243     2.663046     8.482256
 C     3.784881     1.928467     7.372851
 C     4.445041     1.921547     6.096485
 C     3.885214     1.208517     5.077133
 C     5.087582    -0.224895     3.324697
 C     5.039715    -0.937067     2.113835
 C     5.895764    -2.008467     1.872180
 C     6.825451    -2.397248     2.842328
 C     6.885729    -1.698671     4.047774
 C     6.021359    -0.624301     4.284157
 C     4.140063     2.067967     2.698887
 C     3.302306     3.169671     2.945313
 C     3.323097     4.292907     2.122038
 C     4.195995     4.348886     1.031103
 C     5.052107     3.274207     0.788064
 C     5.026471     2.147922     1.616060
 C     2.446133    -1.387558     3.535532
 C     3.073323    -2.257637     4.442085
 C     3.105028    -3.635369     4.231700
 C     2.491084    -4.190712     3.106159
 C     1.829469    -3.347683     2.213340
 C     1.801030    -1.967455     2.429754
 C     1.444480     0.834739     2.945864
 C     0.258302     1.322870     3.503448
 C    -0.719823     1.925810     2.703487
 C    -0.530305     2.050603     1.326981
 C     0.649247     1.564817     0.754402
 C     1.619589     0.968140     1.555924
 H     1.013673     0.596097     8.939260
 H     1.925660     1.902941    10.834596
 H     4.025760     3.238939    10.532191
 H     5.190506     3.244829     8.350617
 H     4.295730    -0.675224     1.358790
 H     5.823998    -2.555120     0.927336
 H     7.491435    -3.245737     2.659662
 H     7.602352    -1.994130     4.819713
 H     6.065891    -0.101823     5.240041
 H     2.601905     3.138412     3.781100
 H     2.647371     5.127169     2.331091
 H     4.213495     5.228568     0.380908
 H     5.755082     3.308524    -0.049826
 H     5.715144     1.327921     1.412750
 H     3.563207    -1.848406     5.325694
 H     3.616353    -4.279298     4.953018
 H     2.518127    -5.270942     2.933879
 H     1.322671    -3.762456     1.336330
 H     1.260403    -1.346817     1.716875
 H     0.080518     1.226020     4.574179
 H    -1.639321     2.296817     3.165944
 H    -1.293577     2.523974     0.702024
 H     0.820828     1.658904    -0.322020
 H     2.538127     0.609685     1.089376
