   62
FINAL HEAT OF FORMATION = -1980.981662
 I     3.125299     1.833537     6.612832
 I     6.936914     2.708745     0.688094
 C     2.962373     0.667790     3.108102
 C     3.745774     1.058772     1.637538
 C     4.730446     1.810847     2.551564
 C     5.887549     2.530578     2.526493
 C     6.344553     3.120791     3.755397
 C     7.518051     3.914060     3.815656
 C     7.919301     4.522415     4.984857
 C     7.156830     4.357941     6.161679
 C     6.013481     3.586906     6.145889
 C     5.563702     2.943153     4.965002
 C     4.377848     2.130965     4.930252
 C     4.025928     1.555062     3.746729
 C     3.091872    -0.811645     3.394000
 C     3.873318    -1.303014     4.442948
 C     4.038814    -2.678619     4.639193
 C     3.424862    -3.590473     3.781037
 C     2.638363    -3.114443     2.726842
 C     2.476885    -1.744143     2.539166
 C     1.547116     1.207728     3.280033
 C     1.316076     2.591505     3.186241
 C     0.033298     3.122513     3.297746
 C    -1.059822     2.280026     3.522617
 C    -0.845300     0.907470     3.648868
 C     0.443930     0.379123     3.533064
 C     4.357974    -0.121024     0.881612
 C     5.398246    -0.858825     1.470622
 C     5.918407    -2.000663     0.864369
 C     5.420755    -2.432448    -0.368119
 C     4.417143    -1.689424    -0.989513
 C     3.899089    -0.545358    -0.376174
 C     2.833120     1.885296     0.745128
 C     1.600399     1.338125     0.340656
 C     0.714325     2.051997    -0.460721
 C     1.038167     3.346196    -0.880659
 C     2.255895     3.903000    -0.490469
 C     3.142828     3.177276     0.314583
 H     8.097508     4.045343     2.899719
 H     8.825229     5.134603     4.996132
 H     7.471494     4.843040     7.089548
 H     5.425907     3.459443     7.056658
 H     4.375960    -0.605004     5.112133
 H     4.659692    -3.034593     5.466567
 H     3.560553    -4.666387     3.926235
 H     2.159062    -3.814875     2.036565
 H     1.882095    -1.397125     1.692643
 H     2.152073     3.266124     3.002263
 H    -0.113717     4.202265     3.205305
 H    -2.069370     2.692797     3.609910
 H    -1.685264     0.234307     3.846857
 H     0.581321    -0.695318     3.653079
 H     5.795181    -0.547829     2.436849
 H     6.714489    -2.560665     1.363158
 H     5.819964    -3.333136    -0.844130
 H     4.028365    -1.996046    -1.965629
 H     3.124111     0.013875    -0.898196
 H     1.313920     0.340738     0.676687
 H    -0.240435     1.599952    -0.745322
 H     0.341674     3.915191    -1.503617
 H     2.524489     4.914116    -0.809950
 H     4.085889     3.635046     0.613381
