   74
FINAL HEAT OF FORMATION = -1243.954968
 C     0.833377     5.551208     9.037940
 C     1.596240     5.624986     7.661691
 C     0.874046     3.980546     9.687626
 C     1.831359     7.076054     7.181686
 C    -0.461832     3.720271    10.434470
 C    -0.587205     6.246217     8.710258
 C     2.061425     3.787252    10.711144
 C    -1.493226     6.506443     9.937891
 C     1.721660     7.947249     9.507984
 C     3.573566     2.578391     9.074119
 C     1.483827     6.532739    10.084823
 C    -0.329692     7.713985     8.165556
 C    -1.323979     5.499470     7.581068
 C     1.917013     2.454626    11.502669
 C     0.929622     1.385514     9.500187
 C     0.622008     6.697816    11.355415
 C     0.472908     7.722706     6.865304
 C     1.071935     2.733499     8.717030
 C     0.363495     8.599665     9.208465
 C     2.062796     1.263660    10.539597
 C    -0.549804     2.397442    11.196139
 C     3.443117     3.778197    10.025921
 C     3.439135     1.278947     9.873549
 C     2.452228     2.628885     8.025587
 C    -0.517551     5.530985     6.268788
 C    -0.419646     1.249120    10.199771
 C    -0.745022     7.318420    11.015929
 C     0.576261     2.360361    12.232899
 C     2.574490     7.883697     8.243154
 C    -0.490184     8.727669    10.470233
 C     0.859989     4.907013     6.506622
 C    -0.306369     6.968655     5.788246
 H     2.474345     6.160614    10.371968
 H     4.554870     2.610534     8.568438
 H    -1.530468     2.353135    11.703110
 H    -1.242631     1.294359     9.462545
 H     3.548569     7.409467     8.465460
 H     0.740229     3.836290     6.674170
 H     0.526451     9.600632     8.768041
 H     2.249374     8.537273    10.279709
 H     3.623418     4.716737     9.479412
 H     1.155868     7.372641    12.049709
 H     4.232220     1.208402    10.640945
 H     3.551062     0.405848     9.204662
 H    -1.331411     8.131895     7.955465
 H    -2.354279     7.105372     9.588026
 H    -1.445745     9.229050    10.230845
 H     0.535479     1.427731    12.825354
 H     0.501096     5.751697    11.897654
 H     2.046914     4.581080    11.466014
 H     0.463213     3.201468    12.942096
 H     2.785015     8.903728     7.872415
 H     2.592856     5.188363     7.790645
 H     4.225382     3.717423    10.805091
 H     0.267452     2.728536     7.967136
 H     2.739523     2.424188    12.241012
 H     0.247013     6.968296     4.831177
 H    -1.274125     7.472290     5.607923
 H    -1.522315     4.452947     7.867025
 H     2.441213     7.027534     6.260999
 H    -0.487162     0.268402    10.706216
 H    -1.288971     3.756412     9.711146
 H    -1.056909     4.952171     5.497916
 H     0.027639     9.348868    11.224165
 H    -0.638670     4.510090    11.165266
 H     2.466067     1.696462     7.431812
 H     2.646513     3.433939     7.312989
 H    -1.932618     5.595765    10.352370
 H    -1.363232     7.373207    11.929483
 H     0.629552     8.770191     6.547687
 H     1.035000     0.575899     8.755552
 H     1.473873     5.006698     5.592405
 H    -2.310727     5.973825     7.421696
 H     1.933570     0.321151    11.103288
