   23
FINAL HEAT OF FORMATION =  -739.622089
 C     7.916684     5.725108     9.806218
 C     8.105349     7.013103    10.287075
 C     7.046823     7.924715    10.231577
 C     5.821683     7.517427     9.690406
 C     5.687556     6.219844     9.225744
 N     6.723515     5.350573     9.290212
 C     6.531347     3.984628     8.772611
 C     7.527601     2.816974     8.916941
 C     5.379983     3.024425     9.156152
 C     6.325928     3.599095     7.286388
 C     6.291204     2.291251     8.129328
 I     6.020296     0.325399     7.390532
 H     8.695835     4.961870     9.821747
 H     9.076177     7.290039    10.703362
 H     7.172581     8.943263    10.608289
 H     4.969055     8.197376     9.629648
 H     4.761623     5.833086     8.796634
 H     7.671002     2.403231     9.927214
 H     8.467322     2.882374     8.346727
 H     4.368783     3.282607     8.804869
 H     5.383078     2.632717    10.184666
 H     7.189620     3.730166     6.616998
 H     5.376755     3.901630     6.817563
