   28
FINAL HEAT OF FORMATION =  -442.522671
 B     0.377271     6.649439     5.265208
 H     0.866121     6.068821     6.201232
 B    -1.994523     7.598163     3.939420
 H    -3.187194     7.661232     3.789025
 B    -1.212330     6.168120     4.638152
 H    -1.844262     5.206692     4.993005
 B    -0.945575     8.102062     2.575670
 H    -1.379200     8.464436     1.513337
 B     0.269338     5.891408     3.664430
 H     0.627012     4.795076     3.320982
 B     0.560560     8.412689     4.995556
 H     1.186647     9.124050     5.740285
 B     1.404186     7.249138     3.946691
 H     2.583047     7.044716     3.832094
 B     0.619581     8.678246     3.234325
 H     1.234846     9.503364     2.613491
 B    -1.027037     7.755065     5.422274
 H    -1.561541     7.981668     6.478488
 B    -0.895447     8.978684     4.115569
 H    -1.329536    10.098721     4.211090
 C     0.491990     7.158843     2.537583
 C    -1.189820     6.470478     2.989349
 N     1.000965     6.825546     1.295442
 N    -1.755639     5.667572     1.996558
 H    -1.880439     4.695352     2.270410
 H    -2.597458     6.056980     1.577624
 H     0.548941     7.259053     0.496005
 H     1.232598     5.846888     1.154003
