   50
FINAL HEAT OF FORMATION =  -980.474512
 B     5.748053     3.550930     3.612019
 B     4.202321     4.433434     3.623354
 B     3.586425     4.424640     5.287701
 B     5.738169     5.321070     3.598321
 B     4.395244     5.869504     4.648649
 C     4.451054     3.101470     4.654614
 C     2.746509     1.659809     4.008316
 H     2.095930     2.514691     3.750878
 N     3.928100     1.823688     4.459279
 C     2.166599     0.328453     3.805272
 C     0.859630     0.216968     3.303442
 H     0.293279     1.123353     3.067205
 C     0.282067    -1.039094     3.107158
 H    -0.736492    -1.118231     2.716625
 C     1.008095    -2.193578     3.412219
 H     0.557196    -3.178925     3.260278
 C     2.313519    -2.090902     3.913362
 H     2.878585    -2.996903     4.151486
 C     2.891037    -0.839576     4.109258
 H     3.906278    -0.736157     4.500005
 H     2.418700     4.240822     5.508378
 H     6.064815     2.757486     2.772488
 H     3.459952     4.257761     2.693750
 H     6.098012     5.912947     2.612571
 H     3.772421     6.876552     4.423465
 B     4.755468     3.536641     6.294024
 B     6.285713     4.446540     6.286433
 B     6.901214     4.455958     4.621583
 B     4.733253     5.305990     6.315203
 B     6.066005     5.883165     5.267038
 C     6.062140     3.114753     5.250055
 C     7.796976     1.682078     5.860908
 H     8.463916     2.535148     6.080336
 N     6.601571     1.845812     5.447455
 C     8.358451     0.343805     6.072434
 C     9.683226     0.207495     6.516934
 H    10.285211     1.102976     6.700464
 C    10.230547    -1.060515     6.724179
 H    11.263066    -1.160906     7.070292
 C     9.455397    -2.199606     6.489075
 H     9.882352    -3.193771     6.651885
 C     8.131418    -2.071315     6.045428
 H     7.528116    -2.965581     5.863110
 C     7.584270    -0.808882     5.837404
 H     6.554853    -0.682866     5.492350
 H     8.072228     4.296827     4.399010
 H     4.452151     2.733937     7.129807
 H     7.031860     4.278799     7.214615
 H     4.362502     5.886434     7.303824
 H     6.670403     6.900475     5.495761
