   68
scf done: -1614.490264
 C     1.511435     0.000159     1.108865
 C     2.360703     0.000306     2.195515
 C     3.774304     0.000356     2.047121
 C     4.351651     0.000253     0.800683
 C     3.470718     0.000117    -0.273690
 C     4.108748     0.000035    -1.509482
 C     3.292843    -0.000084    -2.614092
 C     1.876934    -0.000117    -2.475017
 C     1.289658    -0.000037    -1.237584
 C     2.122614     0.000072    -0.132990
 C     5.676213     0.000245     0.174895
 C     5.533808     0.000110    -1.169340
 C    -0.006423     0.000048     0.930165
 C    -0.619009     1.244838     1.579001
 C     0.172565     2.171731     2.245608
 C    -0.337042     3.334454     2.780814
 C    -1.676515     3.626795     2.644366
 C    -2.479331     2.729178     1.985600
 C    -1.984399     1.533541     1.476323
 C    -2.958187     0.663167     0.852086
 C    -2.958088    -0.663551     0.852102
 C    -1.984169    -1.533732     1.476388
 C    -2.478899    -2.729442     1.985696
 C    -1.675950    -3.626864     2.644563
 C    -0.336547    -3.334237     2.781106
 C     0.172866    -2.171449     2.245857
 C    -0.618839    -1.244767     1.579113
 C    -0.162838    -0.000020    -0.778155
 C    -0.718980     1.340122    -1.270123
 C     0.096900     2.432777    -0.977603
 C    -0.220681     3.729038    -1.301238
 C    -1.396733     3.990892    -1.971338
 C    -2.208312     2.935913    -2.292034
 C    -1.902223     1.611319    -1.962826
 C    -2.897891     0.662331    -2.410706
 C    -2.897805    -0.662619    -2.410746
 C    -1.902078    -1.611519    -1.962804
 C    -2.208058    -2.936150    -2.291983
 C    -1.396431    -3.991063    -1.971199
 C    -0.220431    -3.729096    -1.301038
 C     0.097042    -2.432805    -0.977440
 C    -0.718900    -1.340217    -1.270035
 H     1.965675     0.000388     3.198053
 H     4.371025     0.000463     2.944607
 H     3.699950    -0.000158    -3.611976
 H     1.274227    -0.000199    -3.367205
 H     6.614666     0.000335     0.697752
 H     1.229373     2.010215     2.323288
 H     0.324937     4.019763     3.282108
 H    -2.087503     4.539645     3.039698
 H    -3.529680     2.936804     1.865943
 H    -3.809954     1.160989     0.417621
 H    -3.809778    -1.161510     0.417648
 H    -3.529202    -2.937272     1.865985
 H    -2.086776    -4.539789     3.039893
 H     0.325530    -4.019373     3.282505
 H     1.229635    -2.009717     2.323606
 H     1.023342     2.265241    -0.460859
 H     0.450179     4.524649    -1.027721
 H    -1.672819     4.995499    -2.241313
 H    -3.125518     3.121095    -2.825816
 H    -3.771413     1.126969    -2.839799
 H    -3.771262    -1.127340    -2.839880
 H    -3.125221    -3.121408    -2.825812
 H    -1.672426    -4.995699    -2.241161
 H     0.450470    -4.524647    -1.027451
 H     1.023452    -2.265185    -0.460668
 H     6.343648     0.000079    -1.875460
