   70
scf done: -1615.728275
 H    -6.037369    -0.869895    -1.663630
 C    -4.293809    -0.000164     0.856070
 C    -3.447804    -0.000106    -0.242617
 C    -4.071988     0.000014    -1.484125
 C    -3.266003     0.000041    -2.588597
 C    -5.703998    -0.000476     0.325554
 C    -5.557126     0.000417    -1.226274
 H    -3.681499     0.000133    -3.582816
 H    -6.255592    -0.871887     0.665862
 H    -6.256697     0.869808     0.666903
 H    -6.036356     0.871915    -1.662401
 H    -0.409674    -4.525736    -1.006255
 C    -1.459799    -0.000075     1.122563
 C    -2.289128    -0.000074     2.219149
 C    -3.704275    -0.000134     2.090822
 C    -1.850123    -0.000004    -2.454452
 C    -1.260878    -0.000047    -1.221881
 C    -2.084475    -0.000101    -0.112961
 C     0.056937    -0.000019     0.930856
 C     0.677843     1.243463     1.575611
 C    -0.105261     2.168994     2.254073
 C     0.410594     3.330167     2.786700
 C     1.748369     3.623131     2.635535
 C     2.543264     2.726992     1.965294
 C     2.042213     1.532606     1.459040
 C     3.009187     0.663401     0.822636
 C     3.009222    -0.663259     0.822614
 C     2.042299    -1.532530     1.459017
 C     2.543422    -2.726904     1.965249
 C     1.748569    -3.623108     2.635434
 C     0.410762    -3.330235     2.786579
 C    -0.105153    -2.169081     2.253992
 C     0.677920    -1.243474     1.575578
 C     0.197166    -0.000006    -0.776472
 C     0.750807     1.339644    -1.272404
 C    -0.059769     2.432995    -0.967680
 C     0.255933     3.729648    -1.290747
 C     0.256121    -3.729640    -1.290780
 C    -0.059613    -2.433031    -0.967636
 C     0.750885    -1.339619    -1.272417
 H    -1.877912    -0.000012     3.215561
 H    -4.293066    -0.000157     2.993293
 H    -1.161124     2.007066     2.342257
 H    -0.245472     4.014084     3.297728
 H     2.163997     4.535041     3.028280
 H     3.592197     2.934780     1.833788
 H     3.855554     1.161744     0.378281
 H     3.855613    -1.161543     0.378233
 H     3.592372    -2.934609     1.833758
 H     2.164226    -4.535012     3.028164
 H    -0.245259    -4.014235     3.297554
 H    -1.161025    -2.007202     2.342160
 H    -0.980054     2.263438    -0.440813
 H    -0.409944     4.525684    -1.006241
 H    -0.979840    -2.263521    -0.440655
 H     1.698725    -4.996979    -2.245025
 C     1.424246     3.992036    -1.974513
 C     2.229887     2.936817    -2.308307
 C     1.925850     1.611636    -1.978473
 C     2.914779     0.662575    -2.440936
 C     2.914789    -0.662410    -2.440985
 C     1.925879    -1.611525    -1.978574
 C     2.229943    -2.936687    -2.308516
 C     1.424382    -3.991943    -1.974701
 H    -1.248746     0.000030    -3.348071
 H     1.698607     4.997086    -2.244761
 H     3.140636     3.121969    -2.853126
 H     3.782307     1.127145    -2.882221
 H     3.782329    -1.126938    -2.882289
 H     3.140664    -3.121767    -2.853406
