   66
scf done: -1538.380100
 C    -0.000131     4.189900     1.539155
 C    -0.000053     4.658212     0.256941
 C     0.000084     4.067115    -2.188055
 H    -0.000176     4.890517     2.356988
 H    -0.000049     5.718012     0.064429
 H     0.000109     5.098642    -2.497917
 C    -0.000076     1.902622     0.818242
 C    -0.000156     2.814533     1.835845
 C     0.000004     3.750753    -0.816138
 C     0.000152     3.068128    -3.117851
 C     0.000128     1.706871    -2.757964
 C     0.000035     1.379634    -1.439388
 C    -0.000006     2.391649    -0.486387
 C    -0.000046     0.378573     0.846769
 C    -1.247422    -0.136555     1.579138
 C    -2.183642     0.737762     2.117944
 C    -3.345268     0.306047     2.720030
 C    -3.630017    -1.040205     2.783773
 C    -2.726866    -1.925047     2.249930
 C    -1.532908    -1.503364     1.674807
 C    -0.663119    -2.555687     1.193749
 C     0.663069    -2.555666     1.193801
 C     1.532807    -1.503329     1.674911
 C     1.247288    -0.136522     1.579265
 C     0.000035     0.002673    -0.792644
 C    -1.339308    -0.614123    -1.216611
 C    -2.432330     0.235653    -1.047255
 C    -3.727383    -0.121293    -1.331123
 C    -3.988665    -1.378492    -1.833540
 C    -2.933911    -2.227961    -2.032156
 C    -1.610129    -1.881276    -1.740325
 C    -0.662284    -2.931654    -2.041351
 C     0.662458    -2.931614    -2.041411
 C     1.610266    -1.881208    -1.740362
 C     1.339397    -0.614098    -1.216552
 H    -0.000247     2.500302     2.866103
 H     0.000234     3.324241    -4.163845
 H     0.000207     0.947344    -3.520812
 H    -2.032780     1.795593     2.037024
 H    -4.036025     1.031486     3.114772
 H    -4.541391    -1.393871     3.234134
 H    -2.928977    -2.982745     2.283253
 H    -1.161528    -3.459373     0.882245
 H     1.161528    -3.459343     0.882323
 H    -2.264937     1.224772    -0.663907
 H    -4.522859     0.582356    -1.157780
 H    -4.992403    -1.687588    -2.068812
 H    -3.117960    -3.209924    -2.435098
 H    -1.127415    -3.856967    -2.342215
 H     1.127627    -3.856906    -2.342282
 H     2.265036     1.224686    -0.663504
 C     2.726772    -1.924987     2.250034
 C     3.629876    -1.040117     2.783922
 C     3.345060     0.306123     2.720247
 C     2.183435     0.737816     2.118139
 C     2.934064    -2.227883    -2.032111
 C     3.988818    -1.378448    -1.833333
 C     3.727509    -0.121313    -1.330773
 C     2.432434     0.235619    -1.046983
 H     2.928919    -2.982679     2.283336
 H     4.541276    -1.393752     3.234254
 H     4.035777     1.031581     3.115027
 H     2.032538     1.795646     2.037248
 H     3.118133    -3.209813    -2.435131
 H     4.992569    -1.687547    -2.068548
 H     4.522976     0.582301    -1.157252
