   66
scf done: -1139.750112
 N     1.291426    -0.290121     0.796900
 C     2.568899    -0.731357     0.342161
 C     0.766792     0.951724     0.451016
 C     2.662585    -1.560927    -0.767928
 C     3.917143    -1.980327    -1.185744
 H     3.982090    -2.615475    -2.055154
 C     3.717995    -0.409180     1.071367
 C     4.941640    -0.866248     0.630197
 H     5.824015    -0.614307     1.196535
 C     5.067708    -1.635838    -0.513871
 C     1.469384    -2.067029    -1.507480
 H     0.553242    -1.827434    -0.987334
 H     1.534799    -3.144966    -1.620522
 H     1.418757    -1.643367    -2.507250
 B     0.701823     1.366685    -1.185149
 H     1.151832     0.609130    -1.963408
 B     0.778625     2.280819     1.482937
 H     1.298466     2.126190     2.529612
 C     6.410961    -2.079618    -0.990725
 H     7.028931    -2.423124    -0.167391
 H     6.939135    -1.261303    -1.472927
 H     6.328968    -2.886878    -1.709760
 C     3.656992     0.395761     2.327780
 H     3.414422     1.433262     2.127797
 H     4.613866     0.370912     2.835664
 H     2.912021     0.020251     3.023891
 B     1.680278     2.274614    -0.020527
 H     2.848106     2.122448    -0.056175
 B     0.734948     3.128754    -1.228795
 H     1.264562     3.693957    -2.120736
 B     0.753544     3.701678     0.449935
 H     1.308147     4.691744     0.779276
 H     1.130985    -0.488345     1.765596
 N    -1.291445    -0.290109    -0.796839
 C    -2.568941    -0.731276    -0.342092
 C    -0.766754     0.951735    -0.451018
 C    -2.662683    -1.560712     0.768098
 C    -3.917258    -1.980080     1.185889
 H    -3.982249    -2.615123     2.055372
 C    -3.717993    -0.409243    -1.071426
 C    -4.941658    -0.866279    -0.630276
 H    -5.823997    -0.614457    -1.196723
 C    -5.067789    -1.635702     0.513895
 C    -1.469522    -2.066721     1.507777
 H    -0.553359    -1.827281     0.987597
 H    -1.534995    -3.144630     1.621049
 H    -1.418887    -1.642849     2.507458
 B    -0.701763     1.366795     1.185120
 H    -1.151814     0.609315     1.963428
 B    -0.778518     2.280767    -1.483021
 H    -1.298367     2.126099    -2.529687
 C    -6.411060    -2.079427     0.990746
 H    -7.029187    -2.422536     0.167366
 H    -6.939036    -1.261192     1.473304
 H    -6.329119    -2.886952     1.709491
 C    -3.656916     0.395449    -2.327996
 H    -3.414325     1.432982    -2.128212
 H    -4.613771     0.370527    -2.835913
 H    -2.911931     0.019777    -3.024005
 B    -1.680172     2.274702     0.020444
 H    -2.848007     2.122597     0.056106
 B    -0.734798     3.128869     1.228658
 H    -1.264382     3.694154     2.120565
 B    -0.753365     3.701689    -0.450108
 H    -1.307917     4.691763    -0.779510
 H    -1.131026    -0.488376    -1.765531
