   62
scf done: -6532.250942
Br     1.741356     3.262290    -0.394940
Br     1.741239    -3.262286     0.395155
 C    -0.853674     0.806060    -0.202081
 C    -0.853718    -0.805982     0.202113
 C     0.649456    -0.683751     0.131766
 C     1.791741    -1.402329     0.194497
 C     3.026802    -0.707169     0.084020
 C     4.264225    -1.372649     0.156481
 C     5.439242    -0.694938     0.078069
 C     5.439257     0.694847    -0.078010
 C     4.264253     1.372588    -0.156337
 C     3.026822     0.707145    -0.083798
 C     1.791788     1.402343    -0.194227
 C     0.649487     0.683795    -0.131481
 C    -1.403496     1.052462    -1.583942
 C    -2.720610     0.716907    -1.870620
 C    -3.255798     0.933772    -3.120314
 C    -2.479642     1.488268    -4.120402
 C    -1.169605     1.817964    -3.852805
 C    -0.637348     1.600351    -2.595128
 C    -1.396595     1.778859     0.828775
 C    -0.776994     1.873217     2.069488
 C    -1.232035     2.745723     3.031762
 C    -2.318670     3.558901     2.775142
 C    -2.931307     3.491800     1.543604
 C    -2.471856     2.614909     0.578748
 C    -1.396522    -1.778721    -0.828857
 C    -0.776505    -1.873357    -2.069336
 C    -1.231496    -2.745760    -3.031729
 C    -2.318492    -3.558553    -2.775462
 C    -2.931553    -3.491186    -1.544146
 C    -2.472147    -2.614409    -0.579167
 C    -1.403703    -1.052494     1.583886
 C    -0.637679    -1.600704     2.595001
 C    -1.170026    -1.818502     3.852603
 C    -2.480041    -1.488677     4.120198
 C    -3.256067    -0.933881     3.120180
 C    -2.720779    -0.716822     1.870555
 H     4.267612    -2.439850     0.280235
 H     6.371057    -1.229869     0.137985
 H     6.371085     1.229752    -0.137981
 H     4.267662     2.439792    -0.280070
 H    -3.331744     0.261832    -1.110074
 H    -4.277643     0.658279    -3.317118
 H    -2.893837     1.654534    -5.100007
 H    -0.550670     2.246427    -4.622510
 H     0.389197     1.859356    -2.411400
 H     0.071739     1.250018     2.290797
 H    -0.733419     2.791362     3.984661
 H    -2.675318     4.243956     3.525174
 H    -3.768216     4.131213     1.319509
 H    -2.953862     2.601513    -0.381249
 H     0.072505    -1.250445    -2.290384
 H    -0.732549    -2.791616    -3.984445
 H    -2.675097    -4.243525    -3.525589
 H    -3.768752    -4.130313    -1.320320
 H    -2.954493    -2.600804     0.380656
 H     0.388832    -1.859833     2.411252
 H    -0.551193    -2.247210     4.622252
 H    -2.894313    -1.655099     5.099744
 H    -4.277884    -0.658280     3.316982
 H    -3.331814    -0.261492     1.110082
