   62
scf done: -1980.395778
 I     3.492923     1.532141    -0.236641
 I    -3.493465     1.530803     0.236995
 C     0.812047    -1.025699    -0.176182
 C    -0.811734    -1.026024     0.175978
 C    -0.689668     0.477549     0.102149
 C    -1.414966     1.617257     0.130343
 C    -0.712324     2.852799     0.051014
 C    -1.376429     4.092713     0.092859
 C    -0.698086     5.269288     0.046403
 C     0.696267     5.269530    -0.045364
 C     1.375008     4.093194    -0.091949
 C     0.711340     2.853048    -0.050202
 C     1.414411     1.617780    -0.129768
 C     0.689512     0.477809    -0.101863
 C     1.093368    -1.567633    -1.554740
 C     1.633547    -0.788404    -2.560288
 C     1.877475    -1.314872    -3.815845
 C     1.580314    -2.631755    -4.087664
 C     1.030135    -3.420151    -3.094695
 C     0.787677    -2.890831    -1.847210
 C     1.756141    -1.575397     0.877662
 C     1.807945    -0.969304     2.128066
 C     2.662076    -1.421470     3.108161
 C     3.500346    -2.491317     2.860536
 C     3.475117    -3.090675     1.620940
 C     2.615506    -2.634709     0.638588
 C    -1.755738    -1.575544    -0.878056
 C    -1.807759    -0.968871    -2.128175
 C    -2.661879    -1.420743    -3.108412
 C    -3.499947    -2.490849    -2.861237
 C    -3.474530    -3.090750    -1.621919
 C    -2.614933    -2.635101    -0.639400
 C    -1.092738    -1.568519     1.554406
 C    -0.786610    -2.891728     1.846384
 C    -1.028664    -3.421524     3.093743
 C    -1.578861    -2.633607     4.087084
 C    -1.876427    -1.316715     3.815765
 C    -1.632883    -0.789762     2.560332
 H    -2.448597     4.099048     0.168804
 H    -1.237068     6.199968     0.082279
 H     1.234932     6.200395    -0.081161
 H     2.447171     4.099904    -0.167950
 H     1.861633     0.245761    -2.375860
 H     2.299247    -0.685299    -4.580564
 H     1.767117    -3.041569    -5.065375
 H     0.778178    -4.447266    -3.295566
 H     0.336709    -3.512039    -1.092243
 H     1.167419    -0.131799     2.342225
 H     2.673781    -0.933524     4.067547
 H     4.171487    -2.845437     3.624186
 H     4.133521    -3.914687     1.404287
 H     2.636284    -3.105723    -0.326614
 H    -1.167401    -0.131146    -2.341987
 H    -2.673753    -0.932349    -4.067568
 H    -4.171128    -2.844701    -3.624977
 H    -4.132769    -3.914980    -1.405595
 H    -2.635594    -3.106568     0.325581
 H    -0.335634    -3.512567     1.091118
 H    -0.776340    -4.448626     3.294219
 H    -1.765313    -3.043795     5.064706
 H    -2.298207    -0.687501     4.580775
 H    -1.861277     0.244408     2.376300
