   54
scf done: -1306.328377
 C     0.000098     0.636555     0.828188
 C    -0.000130     0.636539    -0.827490
 C     0.000341    -1.884336     0.666226
 C     0.000077    -1.884526    -0.667302
 C    -1.214246    -0.023309     1.432188
 C    -2.273628     0.631249     2.015225
 H    -2.288755     1.707377     2.053045
 C    -3.324286    -0.100617     2.545430
 H    -4.151070     0.412307     3.006262
 C    -3.318302    -1.476720     2.483105
 H    -4.139525    -2.037443     2.895596
 C    -2.260281    -2.144207     1.887148
 H    -2.254955    -3.218842     1.825298
 C    -1.216570    -1.419262     1.368279
 C     1.214766    -0.023098     1.431846
 C     2.273986     0.631669     2.014929
 H     2.288937     1.707806     2.052683
 C     3.324751    -0.099987     2.545226
 H     4.151339     0.413100     3.006224
 C     3.319097    -1.476085     2.482815
 H     4.140406    -2.036644     2.895362
 C     2.261284    -2.143781     1.886717
 H     2.256235    -3.218413     1.824756
 C     1.217415    -1.419056     1.367873
 C    -1.214746    -0.022969    -1.431360
 C    -2.274306     0.632098    -2.013588
 H    -2.289428     1.708254    -2.050515
 C    -3.324968    -0.099305    -2.544388
 H    -4.151907     0.413990    -3.004530
 C    -3.318922    -1.475470    -2.483417
 H    -4.140042    -2.035802    -2.896637
 C    -2.260924    -2.143474    -1.888043
 H    -2.255638    -3.218161    -1.827050
 C    -1.217198    -1.418987    -1.368584
 C     1.214373    -0.022805    -1.431714
 C     2.273672     0.632498    -2.014158
 H     2.288512     1.708662    -2.051108
 C     3.324429    -0.098666    -2.545076
 H     4.151187     0.414790    -3.005343
 C     3.318692    -1.474832    -2.484027
 H     4.139945    -2.035012    -2.897212
 C     2.260842    -2.143062    -1.888638
 H     2.255740    -3.217756    -1.827797
 C     1.217036    -1.418827    -1.368992
 C    -0.000080     2.130657     0.687592
 C    -0.000351     3.293079     1.422554
 H    -0.000353     3.305403     2.499370
 C    -0.000558     4.473424     0.693672
 H    -0.000697     5.416434     1.213601
 C    -0.000606     4.473400    -0.693317
 H    -0.000803     5.416365    -1.213326
 C    -0.000389     3.292972    -1.422036
 H    -0.000475     3.305089    -2.498848
 C    -0.000143     2.130657    -0.686857
