   23
scf done:  -739.458200
 C     7.862728     5.682924     9.876698
 C     8.054586     6.950991    10.359084
 C     7.043433     7.880082    10.218995
 C     5.863685     7.512258     9.597372
 C     5.729969     6.232355     9.136169
 N     6.719454     5.348269     9.281179
 C     6.529387     4.000011     8.774234
 C     7.546110     2.869244     8.853459
 C     5.442427     3.021115     9.212391
 C     6.253128     3.617644     7.321931
 C     6.297576     2.326064     8.146614
 I     6.039524     0.391061     7.425432
 H     8.604203     4.910201     9.950581
 H     8.984869     7.198448    10.835813
 H     7.171290     8.881717    10.589868
 H     5.054578     8.207309     9.469997
 H     4.844378     5.875897     8.644186
 H     7.750499     2.455193     9.833890
 H     8.434423     2.958395     8.239121
 H     4.423118     3.250835     8.925553
 H     5.514595     2.629041    10.219118
 H     7.060031     3.766208     6.615345
 H     5.285809     3.885638     6.913873
