   72
scf done: -1218.309656
 N     1.507314     0.474494     0.254538
 N    -1.492409     0.475026     0.182754
 C     4.169172    -3.018211     0.397611
 H     3.978835    -4.029544     0.720368
 C     3.110073    -2.242661    -0.035524
 C    -3.366587    -0.889994    -0.523726
 C     3.343181    -0.933929    -0.450259
 C     0.893417     1.707800     0.204317
 C     2.194540    -0.079313    -0.897736
 H     2.551802     0.715345    -1.543793
 H     1.493856    -0.669181    -1.480944
 C     5.460588    -2.528234     0.430970
 B    -1.407089     3.059377    -0.662277
 C    -0.880305     1.710174     0.183303
 B     0.032263     2.152466    -1.171766
 C    -5.613090    -1.167650     0.262368
 H    -6.560944    -0.732801     0.537390
 C     4.635658    -0.415857    -0.405654
 C    -3.185327    -2.267708    -0.453302
 C     5.671017    -1.222642     0.031056
 H     6.669430    -0.816423     0.064007
 C    -2.246567     0.003911    -0.966086
 H    -1.582452    -0.527029    -1.639104
 H    -2.649046     0.844468    -1.521549
 B     1.456480     3.055791    -0.625723
 B    -0.016266     2.092144     1.582370
 C    -4.594066    -0.335912    -0.161841
 B     0.034495     3.919482    -1.179854
 C    -4.228997    -3.068942    -0.025516
 H    -4.081125    -4.136026     0.024363
 C    -5.450324    -2.538276     0.339432
 B    -1.433994     3.020025     1.087238
 B     1.428462     3.004700     1.123979
 C     6.598566    -3.390025     0.869498
 H     7.025593    -3.925362     0.025195
 H     6.278247    -4.129619     1.595335
 H     7.392082    -2.800892     1.316234
 C     1.729931    -2.815505    -0.047958
 H     1.698275    -3.760152     0.482588
 H     1.386983    -2.999495    -1.063508
 H     1.020099    -2.139981     0.417896
 B    -0.861818     4.460102     0.255755
 C    -1.888121    -2.899916    -0.842848
 H    -1.862784    -3.941524    -0.543928
 H    -1.047336    -2.397882    -0.378772
 H    -1.736429    -2.865581    -1.919148
 B     0.892752     4.454549     0.281149
 C    -4.837673     1.137293    -0.243420
 H    -5.796722     1.391689     0.192343
 H    -4.846226     1.481610    -1.274567
 H    -4.075985     1.709071     0.276888
 B    -0.007414     3.848704     1.687554
 C    -6.556414    -3.413910     0.829294
 H    -6.570014    -3.449424     1.915717
 H    -6.444550    -4.431060     0.470430
 H    -7.524278    -3.046771     0.504761
 C     4.931298     0.993161    -0.811598
 H     5.971157     1.233666    -0.624011
 H     4.323855     1.708260    -0.265047
 H     4.745169     1.155529    -1.869963
 H     0.038165     1.418006    -2.091957
 H    -2.439576     2.845340     1.681128
 H    -0.027520     1.290356     2.446537
 H     1.538776     5.443358     0.313802
 H    -2.390875     2.954039    -1.303403
 H     2.416338     2.819018     1.744249
 H    -1.502525     5.452867     0.264719
 H     0.046861     4.515890    -2.199523
 H     2.458376     2.933878    -1.235793
 H    -0.017510     4.388184     2.738564
 H     1.998349     0.329683     1.113898
 H    -1.909870     0.243217     1.061156
