   54
scf done:  -982.620866
 B    -1.220325     1.928495     0.000000
 B    -0.789901     2.878200     1.432484
 B     0.954835     3.038186     1.429958
 B     1.535723     2.186418     0.000000
 B    -1.423071     3.674974     0.000000
 B    -0.045269     4.377247     0.878485
 B     1.432611     3.944805     0.000000
 C     0.198444     1.641531     0.874993
 N     0.352052     0.403083     1.480264
 C    -0.605747    -0.002255     2.481565
 H    -1.592058     0.005995     2.026873
 H    -0.639044     0.691652     3.320624
 C    -0.291179    -1.374721     2.992203
 C    -0.438996    -1.664261     4.336881
 H    -0.753257    -0.889195     5.016786
 C    -0.186350    -2.934346     4.815456
 H    -0.306071    -3.144258     5.864503
 C     0.228368    -3.928322     3.952805
 H     0.431222    -4.917869     4.324789
 C     0.386569    -3.645004     2.610317
 H     0.711863    -4.415446     1.932120
 C     0.127059    -2.376958     2.133664
 H     0.250584    -2.148434     1.089722
 H    -2.043358     1.086915     0.000000
 H     2.414336     4.601634     0.000000
 H    -1.392847     2.686635     2.426593
 H     2.483818     1.483663     0.000000
 H    -2.503527     4.152023     0.000000
 H     1.577285     2.919995     2.426200
 H    -0.141537     5.363587     1.521496
 H     1.294178     0.264764     1.793752
 B    -0.789901     2.878200    -1.432484
 B     0.954835     3.038186    -1.429958
 B    -0.045269     4.377247    -0.878485
 C     0.198444     1.641531    -0.874993
 N     0.352052     0.403083    -1.480264
 C    -0.605747    -0.002255    -2.481565
 H    -1.592058     0.005995    -2.026873
 H    -0.639044     0.691652    -3.320624
 C    -0.291179    -1.374721    -2.992203
 C    -0.438996    -1.664261    -4.336881
 H    -0.753257    -0.889195    -5.016786
 C    -0.186350    -2.934346    -4.815456
 H    -0.306071    -3.144258    -5.864503
 C     0.228368    -3.928322    -3.952805
 H     0.431222    -4.917869    -4.324789
 C     0.386569    -3.645004    -2.610317
 H     0.711863    -4.415446    -1.932120
 C     0.127059    -2.376958    -2.133664
 H     0.250584    -2.148434    -1.089722
 H    -1.392847     2.686635    -2.426593
 H     1.577285     2.919995    -2.426200
 H    -0.141537     5.363587    -1.521496
 H     1.294178     0.264764    -1.793752
