68
 energy: -103.143193961583 gnorm: 0.000448330184 xtb: 6.2.2 (9d81278992624c895f80dd42a50cac0aa55982e2)
C         9.16597385079274   11.46713047428869   15.36578320989362
C         8.19663693222171   12.39789667011919   15.69885117665138
C         7.10264763120466   12.08299108875021   16.54759398864869
C         6.95569517842953   10.81780951589232   17.08281722572587
C         7.95060174294834    9.89210017503177   16.73094942588057
C         7.76136804084370    8.62115285244969   17.30067340723672
C         8.71408832572197    7.67074683225131   16.99160471465317
C         9.81293861499055    7.98321912497620   16.14528209774025
C         9.96673010269018    9.23753610590110   15.60393998813357
C         9.00085075626202   10.19623986469599   15.91763305039430
C         6.06688510065724   10.04977513325206   17.94905694738750
C         6.53330317954087    8.77840003233247   18.07466703509279
C        10.42795491847489   11.45085383948883   14.50992955285628
C        11.43784608739568   12.47548820112212   15.01756914844488
C        11.13700208604216   13.28176029145145   16.11241630914990
C        12.05474959375275   14.15561098088711   16.66298722012495
C        13.33310063355020   14.23449112148008   16.14066565791088
C        13.65497165194021   13.44592633121351   15.05976632098133
C        12.72516968307458   12.58454545175655   14.46895024111580
C        13.19044319242937   11.85835964196566   13.30788224428585
C        12.46492934207480   11.47882568200632   12.25238118684454
C        11.05320802225441   11.70854432029646   12.03751612224990
C        10.66078645094160   11.87862060654519   10.70606795615176
C         9.35687669413482   12.15028873998471   10.36004777874538
C         8.40868790157863   12.24025731344434   11.36320866583105
C         8.77564614967925   12.03848707947287   12.67976104499584
C        10.08864254318912   11.76486511617901   13.05560447006189
C        10.99269283991892    9.89772014611590   14.68996163673753
C        12.26835635847151    9.92297844158112   15.51977546079477
C        12.08681907685666   10.42048769301478   16.81458179883068
C        13.11985682760109   10.57652618784153   17.71454214377870
C        14.40356013566978   10.21631429793325   17.34506703949324
C        14.60188102251701    9.69208535039708   16.08998736700939
C        13.56212031461548    9.52625753889944   15.16028247842029
C        13.97447601426407    8.93947035651436   13.90602366323523
C        13.26967892819050    8.55040956411524   12.83883497833473
C        11.85108047192749    8.58594526424791   12.56767258923805
C        11.47795154739705    7.97642098425686   11.35845588669140
C        10.17253143641070    7.89576289711205   10.93572158444962
C         9.18212209987863    8.42046282684411   11.74705648285928
C         9.53021717983409    9.02297796791825   12.93757058827889
C        10.85365323974666    9.14896763546643   13.37310197693682
H         8.24754097286309   13.40771273749826   15.31228290699896
H         6.39002606307614   12.86894355003260   16.75881339559886
H         8.65108356275563    6.66536252990022   17.38498159364638
H        10.53194842761266    7.20384945595046   15.93495865258634
H         5.17850989139873   10.43946594067828   18.41374615769017
H        10.17043818796519   13.21559498197777   16.58392289362225
H        11.77419481093295   14.75471460178860   17.51663977809750
H        14.06779335619493   14.89566878681208   16.57541673076955
H        14.64839228407965   13.49584600693882   14.63689019974206
H        14.26266616814316   11.71228466503093   13.26540876324245
H        12.98600274098835   11.04462328391263   11.40816248920804
H        11.41574655343821   11.80634885362869    9.93598787917220
H         9.07981003011934   12.28286206663582    9.32490760640826
H         7.37530322254698   12.44270180249420   11.12337302726005
H         7.99487369120630   12.06786025781887   13.42175967716221
H        11.09963138912500   10.70955643461201   17.13849423823761
H        12.92032552376977   10.98049895727014   18.69551933714975
H        15.23198927498906   10.33635736720723   18.02705263757659
H        15.59894448065613    9.39224879559769   15.79806555592941
H        15.04439913198877    8.77216432745897   13.84893624855250
H        13.84407211576326    8.10990910800912   12.03145002509802
H        12.25742318663328    7.55461463710819   10.73900637436359
H         9.92848139839656    7.42601942670858    9.99462381990640
H         8.14381767227126    8.36534678676825   11.45705714247691
H         8.73189231704064    9.41768153258037   13.54607644432022
H         6.07276114291942    7.99883066739991   18.65532960673968
