66
 energy: -98.882943969529 gnorm: 0.000386307106 xtb: 6.2.2 (9d81278992624c895f80dd42a50cac0aa55982e2)
C         8.11014603334075   12.11108520607551   17.30758035608334
C         7.94140854649492   11.51644341476432   18.53220681925666
C         7.43210609698046   11.86832927182721   20.98558143149521
H         8.34283183338068   11.49834316008478   16.44794068355092
H         8.03945541207054   10.44596717742424   18.63994440289902
H         7.50587634011686   10.81430710078725   21.21157408122734
C         7.69748442923893   14.30513521733107   18.19064900029416
C         7.99272928035846   13.50101230154787   17.11657814806440
C         7.63778662268946   12.30634218093650   19.65933017513347
C         7.14180085420720   12.77169197088577   21.97521406362534
C         7.03502743187811   14.15490824733942   21.72794094103100
C         7.22936326150741   14.60512850331015   20.45387611137645
C         7.52675493011936   13.68864409564086   19.43729726137265
C         7.50830011145794   15.81079296699450   18.30466865315232
C         6.35316718169122   16.27511506329317   17.41792142481042
C         5.64441720674514   15.36669399509736   16.63532666904649
C         4.54044697193102   15.73253502380503   15.88927580232324
C         4.08466095237757   17.03792338689796   15.92285533473420
C         4.76256422646516   17.95277817328519   16.69536823217353
C         5.90334320963825   17.60476627964263   17.42544402077113
C         6.53484445581575   18.68420535073951   18.15251342486841
C         7.83852008751462   18.82864248679212   18.40272894980544
C         8.90462486947082   17.93782852131342   17.99968971904292
C         8.78116989702658   16.54451760841238   17.88317827834715
C         7.17924435821970   16.01858638464472   19.89316686704596
C         5.72421798133535   16.43408868433543   20.06876451991278
C         4.80915715742562   15.47764377405817   19.61622004905842
C         3.44398095882806   15.67024471119571   19.63404049949111
C         2.93104997263244   16.85437014327581   20.13312394793570
C         3.80807255734600   17.79631406167059   20.61520460816476
C         5.20132303939147   17.61713767919734   20.60461683281626
C         5.94500352590422   18.71760136103997   21.17333511289817
C         7.24931759424275   18.86288187812068   21.42678553929877
C         8.36600246145643   17.97000349264750   21.21863972816790
C         8.34298709346698   16.72731049384146   20.57408411361613
H         8.13762944224780   13.90771449964030   16.12529701793343
H         6.98759054062164   12.41933425985561   22.98509775649943
H         6.80472375354263   14.83275348451616   22.53649904018986
H         5.92760227879053   14.32732937811565   16.61883839658968
H         4.02382932652885   14.98704020985099   15.30282739158314
H         3.20975505245979   17.33278237765414   15.36291687914622
H         4.42090043403498   18.97742148228761   16.73652350004890
H         5.87252443714873   19.49845735164056   18.41913040588848
H         8.16934388173769   19.75268242819634   18.86051538118305
H         5.17271184524148   14.54177045901120   19.22265792469659
H         2.78870151740845   14.89980722650806   19.25651878041034
H         1.86662134952909   17.03477671337030   20.15095109899498
H         3.41621116224980   18.71847335167086   21.02182492143037
H         5.31449881106463   19.55249170419397   21.45853989091678
H         7.53699351080055   19.79993034646410   21.89058952347471
H         9.55797353041125   15.03492106133627   20.06332743426438
C        10.13077859000052   18.54911148199814   17.71981652151434
C        11.22002636969824   17.83074351661952   17.28319257139095
C        11.09607346606460   16.46067874353945   17.14074944718602
C         9.90144297492998   15.83914447966559   17.45015807523675
C         9.58394981007095   18.43937112671935   21.73802605950157
C        10.75579943943592   17.72645888467455   21.65182047936580
C        10.72900076333727   16.48411495586901   21.04319903480431
C         9.54170673303596   16.00762684960227   20.52864695999805
H        10.20845373135744   19.62038160148613   17.84065768848929
H        12.15413104498062   18.32696492637872   17.06630798213110
H        11.93591706936230   15.86599953022506   16.81282373302953
H         9.87122757376972   14.76479044069736   17.37579537642035
H         9.59132029676924   19.40426014021302   22.22618611495960
H        11.67338736653559   18.12662359472175   22.05647939129978
H        11.62570666679041   15.88821964847906   20.96353661166863
