70
 energy: -104.196518793737 gnorm: 0.000465097686 xtb: 6.2.2 (9d81278992624c895f80dd42a50cac0aa55982e2)
H         6.20889246816164    5.95844098904532   23.11104349655724
C         7.92439845823167    4.60862413136258   25.44163256615822
C         8.13075976298141    5.98732677101469   25.51506722033091
C         7.20611072958998    6.78480608003081   24.83385573637224
C         7.38592370976514    8.14397318173722   24.89191092266882
C         6.69245360601596    4.40392033743921   24.59732481207250
C         6.21876263402293    5.83916011083230   24.19609336786124
H         6.70805266004850    8.81873408359425   24.38847620506566
H         6.91950604907855    3.80478186278450   23.71346013350556
H         5.91754348982967    3.87812002302548   25.15845195274018
H         5.20607863646624    6.03127465273117   24.55549760629095
H        12.68962760112640    7.83849505156186   23.07577674623882
C        10.10478020873149    5.74061069952006   26.90111606373237
C         9.90727451614390    4.37626504831955   26.83191787240518
C         8.82344140394519    3.81163518044686   26.10687411398487
C         8.47131770309836    8.70807514719505   25.61843794938749
C         9.36812784832895    7.91026638979332   26.28074532227368
C         9.18066017706597    6.52985370396264   26.21782515457653
C        11.12416910969425    6.66181901589121   27.56564525114610
C        11.11292682080931    6.47369630459617   29.07982428766313
C        10.26533311068791    5.53982391697444   29.67082174685094
C        10.15814177649461    5.39831918347741   31.04094070938581
C        10.89169728178960    6.21766021271471   31.87995327451513
C        11.73449685704100    7.15038309054747   31.32014580857183
C        11.88056526712822    7.27924475509268   29.93537799647807
C        12.84184852003408    8.26622090804488   29.49472870911519
C        13.60507805986522    8.21017752537881   28.40013907314488
C        13.63606319099842    7.15126054546952   27.41518404315833
C        14.87615056505395    6.91983200201244   26.81169747227337
C        15.06205142808813    5.91348314830605   25.89173601149547
C        13.98069896907564    5.12347760630726   25.54534972944935
C        12.74160546513442    5.36455683830719   26.10680203505286
C        12.52858859617125    6.37312156402113   27.04350629271235
C        10.60598077075092    8.17709779668989   27.13274014892969
C        10.06569866754443    8.89554995618369   28.36017773905350
C         8.96005784510533    8.26341488466278   28.93889250448692
C         8.34257889281565    8.71998186834267   30.08410375101217
C        12.62142020974502    8.43717460423025   23.97149547380475
C        11.73691738805721    8.08138307469107   24.96767798013710
C        11.60289362529575    8.79426785191658   26.16373409494970
H        10.57914146949739    3.69207919724836   27.33348052704388
H         8.73074551113531    2.73454923407977   26.09697217678133
H         9.63751330695406    4.91555364108913   29.05695643707433
H         9.48075034750747    4.66276095063119   31.44920765634704
H        10.80091956348494    6.13354002543276   32.95268813994247
H        12.31740083570887    7.79861708138517   31.95915861256041
H        13.01802936741651    9.07175504871673   30.19693413877424
H        14.36278524811891    8.97283703041892   28.26871052948072
H        15.70912559842768    7.54735944069309   27.09577907677176
H        16.03149740790460    5.75017384173325   25.44501920719449
H        14.09144535818630    4.33212307307763   24.81861693898094
H        11.91780871128849    4.75758545243007   25.76975417698068
H         8.56435418999325    7.36926708009394   28.48429217494925
H         7.50131905195714    8.17976706528634   30.49140796754572
H        11.13227355983594    7.20335284835835   24.80510300541093
H        14.12347447313375    9.85335907725684   23.37574207057279
C         8.81380860957576    9.86587878888379   30.69987760297959
C         9.87809714206588   10.52434316577165   30.13175030866216
C        10.51946614077807   10.07345596116361   28.96627563310574
C        11.60542211464043   10.91669714443093   28.52220362067951
C        12.37308045918463   10.86489160364268   27.42909984983417
C        12.38149929426694    9.94860957023389   26.31204071313049
C        13.27762454494321   10.29553090316511   25.28755745862971
C        13.41557940448885    9.55816450620952   24.13590944727459
H         8.57157575233358    9.78397014919604   25.63610283330204
H         8.35400076686946   10.24039272088058   31.60233134423751
H        10.24393278193217   11.42918397971511   30.59733383384984
H        11.80393797555411   11.74201427023145   29.19734867122158
H        13.11175603469346   11.65350381932312   27.33566570643685
H        13.88278840028898   11.18209654741994   25.41835848866022
