66
 energy: -93.915863961728 gnorm: 0.000885265363 xtb: 6.2.2 (9d81278992624c895f80dd42a50cac0aa55982e2)
Cl        9.42622406470008    8.76577917128101    3.37532901382839
Cl        4.45148425568986   10.70071559750526    0.06937897776833
C         7.10952522274882   10.63784325084066    0.65492817863781
C         7.77695559169683   11.90737649893402    0.15796127761159
C         9.15424401748429   11.27411854300092    0.79348500823659
C         8.23162137026856   10.22940085650750    1.40760566337735
C         8.14500153078653    9.19866971707792    2.29220076342467
C         6.92017252315183    8.47047829668525    2.37234183809435
C         6.78163556275811    7.34460002486351    3.20693070157498
C         5.60500460281633    6.65024443240500    3.28102101269874
C         4.50207090193087    7.05492905505490    2.52257208871984
C         4.59800461120685    8.14788340600343    1.70530847434643
C         5.79390386923307    8.88286862659256    1.60126447112386
C         5.89282752827153   10.04048846437337    0.77601013365253
C         7.04004351978773   13.06276989220326    0.86360865939362
C         6.28839039294426   12.82997208575187    2.01889613194717
C         5.52204676713530   13.82108616857204    2.60386063144174
C         5.47693319035275   15.09062598516734    2.05746322780477
C         6.21183507034347   15.34405348335149    0.91585817058572
C         6.96879494516127   14.34584355133796    0.32556763066271
C         7.73310169503837   12.22299963291434   -1.32066367158122
C         6.76975189052561   11.65010676541148   -2.14412514480834
C         6.67685042365414   11.98867231859874   -3.48220618792539
C         7.54680446098196   12.91194914490640   -4.03367119295416
C         8.50597054676378   13.49697047494600   -3.22693291044143
C         8.59161358769479   13.16360504285107   -1.88617029556837
C         9.94502193358584   12.19124623594151    1.80118567323500
C        10.24150015200023   13.57118785368251    1.19975758132986
C        11.28375784776793   11.62814428087411    2.31224337511723
C         9.13710176344179   12.43116892869795    3.09079494662469
C        10.02348804901986   10.45397029981484   -0.26668893937367
C         9.18283023476567    9.79187985705444   -1.37945144012251
C        11.09729959352165   11.26401758221767   -1.00486323222096
C        10.70743427458428    9.24766769316001    0.41212327861024
H         7.63080501833112    7.02396454049371    3.79050564478262
H         5.52641932756248    5.78645154504315    3.92388659290627
H         3.57684138707883    6.50187349995700    2.58208055440175
H         3.74967058508354    8.46055774052779    1.11671504887602
H         6.29955025579508   11.86233274379327    2.49452623848087
H         4.95463819102822   13.59073690594748    3.49379227194930
H         4.87504463579183   15.86422932371316    2.51015539759206
H         6.19293090179424   16.32487608437416    0.46340828082017
H         7.49065513667900   14.59526613899484   -0.58360907016667
H         6.09503830890120   10.91136510698794   -1.74940137635043
H         5.91882026983773   11.52300419643114   -4.09494222196958
H         7.47829889143952   13.17388242840138   -5.07897298109748
H         9.19121148342660   14.22401533099195   -3.63961274165766
H         9.33655835300333   13.65022262142085   -1.27807649317142
H         9.32743413751050   14.07928074689030    0.91291077340767
H        10.90543161155011   13.50631213602206    0.34458745258937
H        10.73240069500775   14.18621164255654    1.95246794950529
H        11.99486301561331   11.39931580330105    1.52896089900414
H        11.74488960650406   12.38475068396966    2.94639117798432
H        11.12619319187472   10.74918775904234    2.92934250512374
H         9.78955905056434   12.88074587376612    3.83737293593876
H         8.75682139545376   11.50271624598485    3.50465289824298
H         8.31039843578896   13.11241902120611    2.93619777504966
H         8.24424601757173    9.39006101856798   -1.01000118129641
H         8.97897614430393   10.46856492435830   -2.20016580706449
H         9.75473270994606    8.96083317922585   -1.78865615407582
H        10.65788299511703   12.07685404464488   -1.57063931900344
H        11.58996549109972   10.60446244457171   -1.71816255039301
H        11.86410370091760   11.66143482579039   -0.35015421340957
H        11.46278454485406    8.84983927049191   -0.26369798122858
H        11.19310491799056    9.47704214073933    1.34653227903354
H         9.98313812811069    8.45723190718646    0.59211341006838
