66
 energy: -78.391661092648 gnorm: 0.000542650569 xtb: 6.2.2 (9d81278992624c895f80dd42a50cac0aa55982e2)
N         5.79577387781711    7.77107038160851    4.11137688652658
C         5.62081757340138    7.13246705482347    2.84448583975514
C         4.80896197827939    8.65408633898938    4.62898360747798
C         5.02099892801395    5.87451074659427    2.76661148859129
C         4.82955732803369    5.28992320018644    1.52065675619610
H         4.34647940187635    4.32381089172387    1.47297182680024
C         6.12823676003820    7.72668807659271    1.67888954744488
C         5.93250613809172    7.10396241775762    0.45784744400811
H         6.31416111573989    7.57346354480882   -0.43807552881206
C         5.25536777539928    5.89737303096304    0.35353917526806
C         4.63414198784248    5.08246215461884    3.98032542825248
H         4.85346242313587    5.62485822382131    4.89275404125056
H         5.19317313714577    4.14646200752673    3.98729959456398
H         3.57440349128145    4.83112701732828    3.95723620405094
B         3.17608556313852    8.22732694181710    4.60501255332893
H         2.88281253489849    7.20116324914630    4.12245365560916
B         5.03439655047776   10.34686677284987    4.65050515572954
H         6.02992501628354   10.74857243303705    4.16565572876675
C         5.04748879753986    5.25014923338848   -0.98212600731024
H         5.94300419678344    4.70104973999355   -1.27558364412518
H         4.84854038009394    5.99866751436100   -1.74603709605689
H         4.21647651598187    4.54990177854035   -0.94880861856071
C         6.90340641330177    9.01209618288986    1.72588106295424
H         6.27578437027442    9.83853156313326    2.05318021487785
H         7.29230186699825    9.24895586490832    0.73867731617182
H         7.75026279139651    8.93391584173352    2.40989401764087
B         3.76129685890968    9.62085755669496    3.67973008157456
H         3.86046094844385    9.50545895919655    2.51351618077082
B         2.24594592957529    9.74102524999221    4.57503143643554
H         1.20966454899508    9.80905967381316    4.02232299444384
B         3.42545516261605   11.08411875151199    4.62695661463629
H         3.23557908321818   12.11661453068121    4.09591803529787
H         6.71053296151752    8.20720278834800    4.15649814859381
N         4.26903744716497    6.88961575309346    6.62505956220057
C         4.90955891682758    6.72182211690647    7.89195093120404
C         3.99774191517670    8.18573174234766    6.10745582564461
C         6.29888962158586    6.61229463326678    7.96982814849256
C         6.90087442387413    6.48578921861175    9.21578412954827
H         7.97909072285130    6.42108557403830    9.26347168011406
C         4.14123523148380    6.57949377717563    9.05754472270297
C         4.77839303192421    6.43763269028071   10.27858807521670
H         4.18096296749624    6.34186190264902   11.17450938547974
C         6.16189890935790    6.42075290123630   10.38289976359504
C         7.17825483640292    6.55129523652055    6.75611587625262
H         6.59886645456256    6.63254727391837    5.84368598322956
H         7.70934484001099    5.59916314887947    6.74914916691957
H         7.92578175911190    7.34339276287227    6.77920122526264
B         5.18377657457626    9.38645260263546    6.13142764723062
H         6.21909504657976    9.12734248435535    6.61398469038731
B         2.41904028193819    8.83690513709950    6.08593746934235
H         1.57338273085595    8.17561235211738    6.57078624921210
C         6.82634663159645    6.27716779367803   11.71856688771036
H         6.85410294723095    5.22708095871080   12.01203322660150
H         6.27759424993998    6.82373787245000   12.48247280716535
H         7.84829159536980    6.64670282917810   11.68524725539852
C         2.64045421445670    6.55088802644110    9.01054917825890
H         2.23855623389003    7.50764517485437    8.68325225267465
H         2.24087654132206    6.33252298810278    9.99775117221313
H         2.28473088136124    5.77840233077066    8.32653307998445
B         3.68434093912725    9.57642194064734    7.05671280078567
H         3.73469703075709    9.43284024056816    8.22292624194844
B         4.33796084278076   10.94883421124902    6.16141374978874
H         4.79719203768267   11.88029147340303    6.71412392568421
B         2.58504964621798   10.59891376405074    6.10949002108884
H         1.78582776631765   11.27960581669030    6.64053154266282
H         3.43395082796191    6.31548515455075    6.57993608486120
