58
 energy: -94.922003342225 gnorm: 0.000458933041 xtb: 6.2.2 (9d81278992624c895f80dd42a50cac0aa55982e2)
I        -0.46357286684061    0.56633640705717    4.63334608062106
I        -0.34598056130949   -4.52393156240628   -0.30986716069733
C         0.77504989874604   -2.92053855168795    4.33156284894460
C         0.81146390494267   -4.09116447105957    3.18254136106418
C         0.08655051030278   -3.10258495502784    2.31879191166222
C        -0.44528005650103   -2.93093051369126    1.08686657539208
C        -1.04565334830170   -1.67027521543249    0.79788756581832
C        -1.62550310485510   -1.39281907748988   -0.45285999730535
C        -2.20327245597449   -0.18433826184586   -0.73118770129451
C        -2.22821023643361    0.81665361157276    0.24346147717470
C        -1.67311222038718    0.58660371027385    1.47261063710733
C        -1.06841331578236   -0.64053106039211    1.79884210674351
C        -0.48847041348338   -0.87831308084197    3.08007218345531
C         0.06753353419693   -2.09201755014346    3.30030392806399
C         0.06785088284397   -3.33563191970020    5.58520229582941
C        -1.27639366587864   -3.51694991845669    5.82341266360293
C        -1.67225517211804   -3.97541119405931    7.07353521457434
C        -0.73807383471857   -4.24539024853886    8.05972765150389
C         0.61145735977809   -4.01040055776742    7.84330997079665
C         1.01097977175526   -3.53716127087611    6.60684313149254
C         2.29731059739490   -3.04005511592969    6.14214657965976
C         3.50626433923439   -2.89560332256257    6.79776559319206
C         4.53130273465157   -2.21515009435249    6.15799895935842
C         4.33812948951872   -1.65687399034839    4.90536778078064
C         3.13236779456418   -1.81316607581475    4.23348242265829
C         2.12993166844796   -2.53630013525449    4.84099169622588
C         0.16098426885745   -5.37558607428859    3.59551905388534
C        -1.17105619566039   -5.67057192862585    3.78565869564453
C        -1.51204876126047   -6.93923859335607    4.23701402723136
C        -0.53695991864452   -7.89002578684730    4.48851993589139
C         0.80066970391437   -7.61619308681579    4.24651358307111
C         1.14625692585425   -6.35928312693186    3.78458086612914
C         2.41257913081611   -5.83639531103871    3.29444843628284
C         3.64774163478618   -6.43966086586035    3.14190211025470
C         4.64737894975870   -5.74638194279056    2.47630787176852
C         4.40538202030361   -4.49227970340968    1.94066641362527
C         3.17177144805992   -3.87463250210394    2.10252052892915
C         2.19294146377585   -4.53608015085398    2.81069325749038
H        -1.60916440878813   -2.16292226001319   -1.20946386965020
H        -2.63962757838769   -0.00410174996626   -1.70164017121917
H        -2.68485384707706    1.77002197686906    0.02617917138554
H        -1.69553743543882    1.36458751861876    2.22089800419581
H        -2.01470190170529   -3.27715771478563    5.07268205561404
H        -2.72291417387279   -4.11751357035003    7.27833831380827
H        -1.06855744545628   -4.61489010955986    9.01938532589370
H         1.33190447546281   -4.17610527941153    8.63012287111122
H         3.64433983955913   -3.28875266473792    7.79376553273967
H         5.48258184875850   -2.09268557700160    6.65475631921754
H         5.13219435116245   -1.08828271430757    4.44474176722918
H         2.98144069509997   -1.34525837189355    3.27234969446360
H        -1.94194853842923   -4.94967365271985    3.55955883300499
H        -2.55234187425873   -7.18668490691822    4.38741125047394
H        -0.82543652630826   -8.86621399367625    4.84983539932868
H         1.55386249732527   -8.37459634604821    4.39867845282482
H         3.82527347628384   -7.43646071171659    3.51666542282392
H         5.61840415990459   -6.20156333825096    2.34763002911550
H         5.18206025673154   -3.98886463972424    1.38446456108513
H         2.98177263388145   -2.91236875732065    1.65113610961492
