62
 energy: -96.917500700271 gnorm: 0.000479525124 xtb: 6.2.2 (9d81278992624c895f80dd42a50cac0aa55982e2)
I         3.10478609529714    1.91326814373729    6.57274604232057
I         6.91827078367969    2.56539810748314    0.61960656152573
C         2.92858978800587    0.64114719718716    3.04693038995746
C         3.65937584693483    1.00562660054714    1.63486901170122
C         4.65176415113751    1.77767611844716    2.47916450377667
C         5.82521115500046    2.45432237680084    2.43858639359885
C         6.29203916782495    3.04550660908924    3.64880128763678
C         7.48842248318111    3.78315103780165    3.70577414872872
C         7.91440013545870    4.38569017931578    4.85731581767459
C         7.15107050902166    4.27835731603862    6.02281940514922
C         5.98582984674539    3.56231023145719    6.01086102813230
C         5.51688273618341    2.92063822657352    4.85024017199660
C         4.32531231749031    2.13819805145366    4.84772429457965
C         3.96221279361296    1.54633170713092    3.68398954328444
C         3.07145099051944   -0.81971370302894    3.38116437048861
C         3.76180692012065   -1.25401688648596    4.50345178406952
C         3.89534939136893   -2.60536550689422    4.77281589079186
C         3.34671313199214   -3.54428498904236    3.91930336466722
C         2.66120672080291   -3.12280343426921    2.79231904366080
C         2.52592226569272   -1.77442640270744    2.52598559377327
C         1.52738148044412    1.16966113065540    3.23784855052596
C         1.31631730221258    2.54699579201885    3.21240797130248
C         0.05335402923504    3.07533692517944    3.39310739742097
C        -1.02590361575347    2.23752850648115    3.61459841981766
C        -0.82439552310225    0.87050453357137    3.66603152150597
C         0.44059323109325    0.33982114344466    3.48313438359796
C         4.31815666160525   -0.13889512282196    0.90348733452930
C         5.35321002476927   -0.83200781356229    1.52826854181926
C         5.99240934084258   -1.87823579493130    0.89287208492930
C         5.61724717981489   -2.24780714463893   -0.38705946502008
C         4.60707879371082   -1.55219007812269   -1.02563620033453
C         3.96439310703366   -0.50480360714445   -0.38904363603485
C         2.77771903804025    1.85426640744177    0.75802555159399
C         1.55186221453915    1.35255856506724    0.32718620207338
C         0.70913089613420    2.11839871660327   -0.45447842441969
C         1.07515420800471    3.40247921540579   -0.82123795603767
C         2.28899480008290    3.91085539590106   -0.39793220968471
C         3.13131078669451    3.14406503627987    0.38874469259301
H         8.08017787856958    3.87615477898758    2.80766700672733
H         8.83682802379851    4.94576443813934    4.86604340634771
H         7.48268757373688    4.75775442950665    6.93099937414321
H         5.40503735659631    3.47836039358237    6.91693748020939
H         4.21170111602543   -0.54171721870389    5.17692216142954
H         4.43537486664130   -2.92158315744414    5.65307900709909
H         3.45474720548046   -4.59818405799185    4.12726186406809
H         2.23275705059016   -3.84664437214134    2.11493440976861
H         1.99829548204301   -1.46080343441855    1.63752324781629
H         2.14788871951182    3.21771534648111    3.04754413338952
H        -0.08597578023802    4.14583510158570    3.36453350360151
H        -2.01426503232492    2.64837346426593    3.75577119935757
H        -1.65571368623572    0.20692689925065    3.85419974069532
H         0.57457191004631   -0.72944527151483    3.54301589437076
H         5.66481407048971   -0.55359960254415    2.52513283707458
H         6.78901492499794   -2.40278059290197    1.39933668374494
H         6.11550816592981   -3.06535765939541   -0.88596159579924
H         4.31594736799896   -1.82110605987310   -2.03049587914284
H         3.18924291176043    0.03249588508453   -0.91396565598255
H         1.24795113057445    0.35696638076736    0.61429367228682
H        -0.23888128183120    1.71178175874439   -0.77444148793059
H         0.41576059533648    4.00301188850784   -1.42976185495879
H         2.58482220367798    4.91194743819768   -0.67508627543020
H         4.06593865450860    3.56932343680203    0.71885818224286
