54
 energy: -82.952364237123 gnorm: 0.000454304099 xtb: 6.2.2 (9d81278992624c895f80dd42a50cac0aa55982e2)
C         9.07893726652793    5.48162764055580   10.81694662842238
C         7.73965553571119    6.17878979255922   11.44152501621185
C         7.52484738737025    4.28529990609105    9.19884431603876
C         6.42326360259440    4.85831725888016    9.71275658527461
C         9.07940442708447    3.97961749623857   10.94053855694090
C         9.81046376587782    3.26101513529317   11.86526520672636
H        10.44357056614136    3.77554042381428   12.57324840725553
C         9.71554570438385    1.87654333550000   11.88377624782556
H        10.28621634911732    1.31344927042510   12.60737126126384
C         8.89395505276081    1.21518236809065   10.98971368406734
H         8.82663511053608    0.13766146368740   11.01571661857372
C         8.14816208842155    1.92834792402690   10.06139017888365
H         7.49544613797357    1.41735039469987    9.36944845719517
C         8.24518672668140    3.30227696454538   10.03751691323096
C         9.30232188051799    5.82041087631258    9.36550825642086
C        10.23029696261490    6.72934545853454    8.89790053846010
H        10.86602764361439    7.25991887291480    9.59153994994055
C        10.33009575599083    6.96253164628317    7.53343003238567
H        11.05488988253291    7.67419181190794    7.16661646892308
C         9.50699642456431    6.29746840428628    6.64349520009321
H         9.59206330544553    6.48983896216068    5.58425614558368
C         8.56527833480692    5.38738498997664    7.10342151199745
H         7.91169842073569    4.87474596776175    6.41349952025814
C         8.46852403073110    5.15000952028240    8.45693026820754
C         6.76601714488676    5.18394192445368   12.01926881233525
C         6.58971235043959    4.93870862531777   13.36635720020679
H         7.17488738364490    5.47864169144656   14.09636781937338
C         5.66418400968579    3.98736066236722   13.77175326754710
H         5.52572814505389    3.79452518760125   14.82529123304794
C         4.92428858019814    3.28310160908618   12.83995369499354
H         4.20886740491305    2.54365222466217   13.16790380091559
C         5.09952942533922    3.51574452426745   11.48283092703490
H         4.53307285019033    2.95959238345289   10.75092248344365
C         6.01349624776150    4.46373577645601   11.07840011975923
C         6.98935840106159    7.02362135172101   10.44411836237002
C         7.01093923379072    8.40325853555176   10.39920339117027
H         7.59827522909826    8.95941018025002   11.11517238122861
C         6.28191398497133    9.06604894070169    9.42178638874793
H         6.29852556153226   10.14526877471946    9.38536562115015
C         5.54139041164762    8.35737257281331    8.49381416003145
H         4.98032266295933    8.88450531924396    7.73650353149026
C         5.51932659677794    6.96987405190973    8.52468233902054
H         4.95273364822765    6.41143505132376    7.79459949405860
C         6.23752657071507    6.31017259381527    9.49758524540953
C         9.82899407006839    6.27686929733198   11.85258037761823
C        11.08753905887652    6.53825473381752   12.33702705103169
H        11.98092539102281    6.08436881288850   11.93359028059464
C        11.15191398849262    7.43925321573396   13.39943367430363
H        12.11494670721354    7.68493353630867   13.82370341546940
C        10.01548646399429    8.03090884575085   13.92950847475304
H        10.12232635655363    8.72230145250692   14.75313910332752
C         8.74152356450172    7.75974892974058   13.43132707326048
H         7.86436609738934    8.22781634282039   13.85375640875044
C         8.68719946457815    6.87133296646023   12.38504877814552
