23
 energy: -33.279197906287 gnorm: 0.000248306141 xtb: 6.2.2 (9d81278992624c895f80dd42a50cac0aa55982e2)
C         7.81245368031506    5.65411366677984    9.98741708462658
C         7.99635904640948    6.92725909548367   10.48586102770057
C         7.03850205114555    7.90134818579376   10.23380957693243
C         5.91854745008953    7.56157218754417    9.48336540747275
C         5.78815695205729    6.27279313803647    9.01297017019330
N         6.72488601706319    5.34840515189054    9.26861732981464
C         6.54203849823995    4.00849266327595    8.77273810805274
C         7.58516412491594    2.88348703964055    8.76315516507965
C         5.50723311803333    2.98564555467486    9.28443890909157
C         6.15303048006361    3.60938812377675    7.33817407032843
C         6.29378491636771    2.29992991739001    8.14544175564095
I         6.01251135565022    0.32436425082097    7.41928085418101
H         8.52979874737611    4.86416528194214   10.15300381811969
H         8.87974980974783    7.15066113544985   11.06272197534639
H         7.16189711293314    8.90403858809785   10.61233549204997
H         5.15352438420592    8.28931716926921    9.26402132048390
H         4.93785377519902    5.96069895333035    8.42535279045082
H         7.88574218021114    2.46375401983993    9.71987982295082
H         8.43362024841596    2.99576649990828    8.09268162573323
H         4.45824515299169    3.19656076255083    9.09527864769497
H         5.65593799197624    2.59344121427188   10.28702466011249
H         6.89202397566104    3.78612711048050    6.56112899137179
H         5.15269192538185    3.85774829267955    6.99394847177071
