28
 energy: -29.602088405041 gnorm: 0.000623826970 xtb: 6.2.2 (9d81278992624c895f80dd42a50cac0aa55982e2)
C         0.33061643104540    7.11207403574513    2.57060654702158
N         0.75234987044879    6.71417470574108    1.26259838040285
B        -0.99798859040190    8.20846113142136    2.60822649401323
C        -1.17397047625960    6.55092874022428    2.96905182536549
N        -1.84133452521417    5.76701396952883    1.99186691485069
B        -2.00371848772117    7.68502757081566    3.95209873909949
B        -0.88031847976072    9.04831175828340    4.15159813119200
B        -1.04371559042744    7.80395288962640    5.43102539715458
B         0.56902563122260    8.43397190007073    4.99616294384974
B         0.59039792101703    8.65900878286202    3.23011850148759
B         1.35178873632303    7.24053115594454    3.94975664626550
B         0.24239534855099    5.89330911337117    3.74602599699906
B        -1.24819224849412    6.22887409206494    4.62403745373048
B         0.34771248400784    6.68453372428184    5.30355758417439
H         0.80394728511461    6.13161948074274    6.23590493244857
H        -3.16968189061505    7.72791960160594    3.83383851833575
H        -1.91924381258943    5.32496209791551    4.96419434708700
H        -1.40012699951349    8.54814704982152    1.55881074911899
H         0.55427972039314    4.81691251050145    3.38283327739746
H         1.20282716914681    9.11855861021514    5.71251360106132
H         2.49981579009816    7.04691531638450    3.77027880920226
H         1.24565828285856    9.40035953864888    2.59012152385878
H        -1.54754273225515    8.03580770955931    6.46807896839173
H        -1.26155011641366   10.15376599373908    4.27386791344577
H        -1.37966516634206    5.84620579777848    1.09014231834670
H        -1.89924466572138    4.79002348682383    2.25311428796129
H         0.96255551386732    7.50662834811454    0.66947391062249
H         1.54992485067825    6.09096976237522    1.28550338283182
