   68
FINAL HEAT OF FORMATION = -1612.170835
 C     9.145543    11.489059    15.354528
 C     8.171690    12.448163    15.659725
 C     7.053584    12.140860    16.521865
 C     6.919469    10.866706    17.074820
 C     7.920491     9.934610    16.741556
 C     7.722745     8.671883    17.333687
 C     8.675927     7.692033    17.050471
 C     9.796509     7.993012    16.188549
 C     9.941825     9.258954    15.630566
 C     8.977525    10.224450    15.926739
 C     5.995316    10.117937    17.967585
 C     6.469168     8.824890    18.119631
 C    10.425038    11.507078    14.490194
 C    11.426201    12.547652    15.039049
 C    11.103920    13.318183    16.174144
 C    12.002787    14.223599    16.747745
 C    13.288560    14.364289    16.209092
 C    13.632184    13.604819    15.092731
 C    12.716922    12.719727    14.478068
 C    13.198897    12.038265    13.286501
 C    12.480115    11.649796    12.213970
 C    11.052190    11.820485    11.993925
 C    10.654261    11.996486    10.648709
 C     9.326002    12.224618    10.295475
 C     8.357377    12.255599    11.307351
 C     8.733796    12.038881    12.637057
 C    10.072136    11.816718    13.018456
 C    11.016174     9.848896    14.693585
 C    12.323972     9.845321    15.516657
 C    12.165435    10.311216    16.841349
 C    13.217620    10.414990    17.752859
 C    14.505861    10.030624    17.360182
 C    14.688290     9.554138    16.066683
 C    13.627458     9.446376    15.127565
 C    14.039774     8.901957    13.845011
 C    13.318639     8.514055    12.776280
 C    11.884250     8.509235    12.544011
 C    11.504298     7.841911    11.348459
 C    10.179513     7.704796    10.948929
 C     9.178131     8.244363    11.766050
 C     9.536982     8.899361    12.945375
 C    10.874817     9.067025    13.368337
 H     8.241262    13.455196    15.247583
 H     6.326476    12.928818    16.723714
 H     8.598486     6.687278    17.468024
 H    10.528236     7.212074    15.981329
 H     5.095536    10.520056    18.425402
 H    10.137249    13.192976    16.649023
 H    11.702614    14.795229    17.626970
 H    14.010648    15.049402    16.654225
 H    14.629310    13.697648    14.659741
 H    14.283390    11.916569    13.228474
 H    13.034680    11.241585    11.365377
 H    11.423433    11.965981     9.875528
 H     9.049862    12.370679     9.250800
 H     7.306620    12.422157    11.066372
 H     7.952068    12.014000    13.387992
 H    11.177391    10.609153    17.177855
 H    13.026402    10.797583    18.755628
 H    15.348499    10.098466    18.048705
 H    15.684325     9.240841    15.749850
 H    15.120518     8.754718    13.761434
 H    13.895746     8.095951    11.946345
 H    12.294758     7.417496    10.727435
 H     9.931987     7.186199    10.022382
 H     8.125846     8.164418    11.492555
 H     8.738006     9.299381    13.561730
 H     6.000808     8.046991    18.716916
