   70
FINAL HEAT OF FORMATION = -1613.398336
 H     6.174190     5.886955    23.075449
 C     7.933844     4.552794    25.443627
 C     8.127874     5.939402    25.515544
 C     7.191252     6.727577    24.827487
 C     7.348597     8.108194    24.873321
 C     6.685017     4.307484    24.585408
 C     6.184469     5.771990    24.170842
 H     6.653503     8.773102    24.358896
 H     6.921036     3.706038    23.693323
 H     5.906286     3.771665    25.150837
 H     5.160432     5.953192    24.533812
 H    12.625202     7.982545    22.971680
 C    10.111303     5.714075    26.906032
 C     9.937842     4.330276    26.848397
 C     8.842918     3.741672    26.113182
 C     8.446393     8.689504    25.610253
 C     9.352439     7.879057    26.278523
 C     9.177906     6.497496    26.220938
 C    11.156534     6.620283    27.593581
 C    11.117472     6.417480    29.125448
 C    10.216323     5.499638    29.701413
 C    10.096495     5.330537    31.084813
 C    10.869169     6.114193    31.951973
 C    11.759975     7.035172    31.404845
 C    11.921614     7.182396    30.008001
 C    12.930401     8.142074    29.585958
 C    13.702385     8.090316    28.481831
 C    13.708730     7.062545    27.452093
 C    14.956758     6.820710    26.833257
 C    15.122914     5.828688    25.869233
 C    14.009216     5.067964    25.489586
 C    12.760360     5.329064    26.063134
 C    12.570709     6.319941    27.047150
 C    10.595092     8.228482    27.125253
 C    10.051617     8.985053    28.358309
 C     8.913552     8.381971    28.939626
 C     8.271698     8.880384    30.074417
 C    12.572532     8.573894    23.886094
 C    11.711856     8.182647    24.912867
 C    11.594001     8.875102    26.139026
 H    10.631868     3.664283    27.362197
 H     8.750409     2.654705    26.098283
 H     9.563783     4.918111    29.059938
 H     9.382293     4.605759    31.478084
 H    10.775132     6.012374    33.033547
 H    12.368981     7.657274    32.062511
 H    13.138827     8.941391    30.301483
 H    14.480140     8.851629    28.382751
 H    15.810506     7.426438    27.140885
 H    16.100508     5.654912    25.418538
 H    14.100407     4.289201    24.731129
 H    11.908480     4.761263    25.706288
 H     8.511760     7.480908    28.487176
 H     7.407242     8.354256    30.480025
 H    11.106047     7.296306    24.753395
 H    14.042072    10.052733    23.267055
 C     8.754312    10.048420    30.678454
 C     9.863238    10.672421    30.118172
 C    10.529509    10.172995    28.966530
 C    11.649687    10.995259    28.541451
 C    12.417595    10.940306    27.436923
 C    12.385648    10.040334    26.296469
 C    13.253734    10.430274    25.240996
 C    13.361122     9.719788    24.050792
 H     8.553942     9.774201    25.634612
 H     8.274347    10.464243    31.564751
 H    10.244135    11.589290    30.570914
 H    11.873653    11.815829    29.229397
 H    13.177800    11.722543    27.353473
 H    13.853378    11.331320    25.379704
