  212
FINAL HEAT OF FORMATION = -3345.050538
 C     0.831173    -0.000923     0.009355
 C    -0.831786     0.000568    -0.009838
 C     1.461297     0.327571    -1.396166
 C    -1.461838    -0.328212     1.395462
 C    -1.440533     1.389295    -0.435158
 C     1.439479    -1.389636     0.435462
 C     1.421338     1.061917     1.008907
 C    -1.421968    -1.062081    -1.009472
 C     1.026882     1.120560     2.361359
 C    -1.027798    -1.120388    -2.362017
 C    -1.066965    -1.453835     2.155262
 C     1.066458     1.453171    -2.156038
 C     1.060051    -2.599848    -0.180083
 C    -1.061124     2.599314     0.180777
 C     2.489513     1.883593     0.610947
 C    -2.489722    -1.884177    -0.611287
 C    -2.568546     0.403396     1.849177
 C     2.568353    -0.403668    -1.849743
 C     2.525563    -1.430601     1.327498
 C    -2.526446     1.430551    -1.327407
 C     1.640992     1.992670     3.275885
 C    -1.641712    -1.992770    -3.276429
 C    -1.736562    -1.817131     3.331542
 C     1.736583     1.817066    -3.331834
 C     1.714364    -3.811686     0.101934
 C    -1.715221     3.811282    -0.101169
 C     3.147354     2.744625     1.506795
 C    -3.147466    -2.745359    -1.507069
 C    -3.281380     0.047537     3.011701
 C     3.281516    -0.047421    -3.011952
 C     3.223971    -2.618956     1.603912
 C    -3.224731     2.619048    -1.603609
 C     2.701154     2.801812     2.832714
 C    -2.701463    -2.802344    -2.833067
 C    -2.848457    -1.058114     3.745160
 C     2.848789     1.058411    -3.745224
 C     2.800852    -3.804275     0.991277
 C    -2.801590     3.804175    -0.990643
 H     0.234820     0.471257     2.707569
 H    -0.235895    -0.470886    -2.708270
 H    -0.235116    -2.052385     1.814977
 H     0.234633     2.051727    -1.815776
 H     0.249671    -2.595394    -0.896307
 H    -0.250609     2.594680     0.896857
 H     2.836667     1.838518    -0.413677
 H    -2.836581    -1.839302     0.413461
 H    -2.908330     1.257089     1.276541
 H     2.908391    -1.257226    -1.277115
 H     2.856567    -0.512385     1.796765
 H    -2.857247     0.512519    -1.797173
 C     1.188774     1.998532     4.749501
 C    -1.189469    -1.998840    -4.750029
 C    -1.324337    -3.036515     4.176753
 C     1.325013     3.037143    -4.176370
 C     1.245986    -5.109799    -0.583628
 C    -1.246420     5.109354     0.584104
 C     4.357917     3.555858     1.011560
 C    -4.357654    -3.557075    -1.011699
 C    -4.521205     0.866354     3.409227
 C     4.521818    -0.865707    -3.409040
 C     4.434915    -2.575590     2.552216
 C    -4.435307     2.576279    -2.552397
 H     3.190103     3.468539     3.531536
 H    -3.190188    -3.469339    -3.531791
 H    -3.381028    -1.349169     4.644527
 H     3.381832     1.349970    -4.644154
 H     3.323240    -4.728566     1.201640
 H    -3.323676     4.728631    -1.201116
 C     5.178647    -0.342778    -4.712095
 C    -5.177388     0.344234     4.712933
 C    -5.110729     3.962894    -2.709587
 C     5.110406    -3.962083     2.710291
 C     4.948522     4.467179     2.117989
 C    -4.948383    -4.468179    -2.118242
 C     5.577726    -0.785627    -2.267351
 C    -5.577886     0.786114     2.268264
 C    -5.497697     1.582314    -1.997586
 C     5.497094    -1.582088     1.996187
 C     5.472701     2.572567     0.546255
 C    -5.472525    -2.574214    -0.545690
 C     4.125487    -2.353668    -3.629204
 C    -4.124268     2.354281     3.628466
 C    -3.978547     2.096994    -3.959436
 C     3.978737    -2.095108     3.959038
 C     3.948146     4.457683    -0.188100
 C    -3.947286    -4.459221     0.187503
 C     1.027566     2.592004    -5.637809
 C    -1.025118    -2.590059     5.637433
 C    -2.035655     6.352751     0.098647
 C     2.035867    -6.353055    -0.098858
 C     1.814218     3.170018     5.551684
 C    -1.814067    -3.171068    -5.551773
 C     0.059998     3.736560    -3.621172
 C    -0.060057    -3.736640     3.620806
 C     0.260477     5.347463     0.285464
 C    -0.260729    -5.348705    -0.284703
 C    -0.357292     2.123007     4.849462
 C     0.356692    -2.122269    -4.849861
 C     2.487783     4.072260    -4.190071
 C    -2.487286    -4.071405     4.192718
 C    -1.437354     4.986347     2.122232
 C     1.436447    -4.986224    -2.121768
 C     1.626525     0.663777     5.418286
 C    -1.628185    -0.664686    -5.419345
 H     0.733143     3.467251    -6.240660
 H    -0.730027    -3.464773     6.240730
 H    -1.640724     7.248946     0.604024
 H     1.641320    -7.249190    -0.604644
 H     1.412360     3.158942     6.577763
 H    -1.412295    -3.160027    -6.577886
 H     1.910036     2.132947    -6.108975
 H    -1.906985    -2.130519     6.109248
 H    -3.106727     6.272766     0.344083
 H     3.106874    -6.272417    -0.344362
 H     2.909529     3.076966     5.621345
 H    -2.909458    -3.078875    -5.621366
 H     0.206004     1.860385    -5.655904
 H    -0.203476    -1.858473     5.653871
 H    -1.924967     6.498622    -0.987891
 H     1.925345    -6.499549     0.987610
 H     1.564053     4.141648     5.095992
 H    -1.563118    -4.142354    -5.095779
 H     2.197265     4.954309    -4.785002
 H    -2.196294    -4.952922     4.788205
 H    -1.094114     5.910117     2.617651
 H     1.093546    -5.910020    -2.617375
 H     1.298455     0.644722     6.471164
 H    -1.299895    -0.645700    -6.472155
 H     2.720423     4.399598    -3.165145
 H    -2.721091    -4.399711     3.168376
 H    -0.858966     4.142074     2.520221
 H     0.857527    -4.142132    -2.519370
 H     1.180916    -0.195493     4.897225
 H    -1.183440     0.195124    -4.898464
 H     3.400703     3.643840    -4.631866
 H    -3.399651    -3.642378     4.635069
 H    -2.498971     4.829428     2.367556
 H     2.497926    -4.828693    -2.367314
 H     2.722159     0.560129     5.390170
 H    -2.723907    -0.561976    -5.391514
 H    -0.198235     4.586676    -4.273846
 H     0.198872    -4.586080     4.274084
 H     0.594992     6.276054     0.777886
 H    -0.594976    -6.277209    -0.777473
 H    -0.657741     2.123908     5.910611
 H     0.657218    -2.123313    -5.910989
 H    -0.800512     3.052249    -3.591889
 H     0.800467    -3.052422     3.589762
 H     0.424753     5.447311    -0.798270
 H    -0.424671    -5.449141     0.799019
 H    -0.695749     3.062689     4.389898
 H     0.695777    -3.061561    -4.389949
 H     0.227565     4.125174    -2.607172
 H    -0.228855    -4.126313     2.607430
 H     0.875910     4.516850     0.656340
 H    -0.876595    -4.518169    -0.655031
 H    -0.868493     1.289057     4.349999
 H     0.867254    -1.287789    -4.350629
 H     6.055642    -0.966011    -4.950648
 H    -6.054023     0.967870     4.951757
 H    -5.972190     3.870164    -3.390590
 H     5.972196    -3.868761     3.390797
 H     5.802730     5.028791     1.706466
 H    -5.802152    -5.030340    -1.706558
 H     4.480263    -0.400063    -5.562427
 H    -4.478451     0.401673     5.562798
 H    -4.415988     4.700850    -3.141546
 H     4.415885    -4.699656     3.143248
 H     4.203423     5.195856     2.475743
 H    -4.203122    -5.196365    -2.476662
 H     5.523552     0.697435    -4.598378
 H    -5.522721    -0.695912     4.599906
 H    -5.481237     4.340313    -1.742997
 H     5.480452    -4.340355     1.743858
 H     5.313040     3.876026     2.973258
 H    -5.313575    -3.876828    -2.973083
 H     6.474966    -1.363628    -2.545324
 H    -6.474782     1.364471     2.546606
 H    -6.369852     1.551718    -2.671932
 H     6.369509    -1.550934     2.670170
 H     6.352622     3.139890     0.199388
 H    -6.352171    -3.141864    -0.198664
 H     5.873944     0.260745    -2.091668
 H    -5.874511    -0.260244     2.093192
 H    -5.836709     1.901760    -0.999484
 H     5.835712    -1.902351     0.998213
 H     5.780409     1.920358     1.379009
 H    -5.780711    -1.921831    -1.378131
 H     5.178928    -1.193868    -1.327223
 H    -5.179609     1.193877     1.327711
 H    -5.089019     0.564691    -1.913658
 H     5.088355    -0.564543     1.911586
 H     5.121623     1.935943    -0.279165
 H    -5.121294    -1.937748     0.279787
 H     5.017451    -2.941182    -3.904091
 H    -5.015864     2.942211     3.903660
 H    -4.842997     2.058942    -4.643373
 H     4.843483    -2.056449     4.642565
 H     4.827843     5.013125    -0.553678
 H    -4.826743    -5.014977     0.553180
 H     3.690539    -2.787442    -2.717912
 H    -3.689773     2.787484     2.716689
 H    -3.530216     1.095443    -3.908740
 H     3.530355    -1.093600     3.907696
 H     3.548065     3.858886    -1.018656
 H    -3.547065    -3.860631     1.018130
 H     3.383556    -2.436772    -4.438482
 H    -3.381778     2.437516     4.437219
 H    -3.230447     2.790141    -4.375718
 H     3.230843    -2.787922     4.376238
 H     3.177960     5.180569     0.120716
 H    -3.177050    -5.181836    -0.121821
