   66
FINAL HEAT OF FORMATION = -2155.654526
Cl    14.028595     3.527942     8.022879
Cl    20.142368     5.585919     9.034123
 C    18.182516     3.579864     8.520894
 C    18.805516     2.190323     8.231460
 C    17.217298     1.621128     8.420146
 C    16.831216     3.120844     8.352247
 C    15.798208     4.019853     8.307598
 C    16.031913     5.423462     8.489759
 C    14.984306     6.385013     8.456728
 C    15.238384     7.728894     8.663672
 C    16.561651     8.171849     8.914884
 C    17.603010     7.261999     8.948941
 C    17.376126     5.874112     8.735712
 C    18.437338     4.908795     8.736104
 C    19.864478     1.637912     9.172205
 C    20.450958     2.430614    10.171979
 C    21.462013     1.928735    11.005124
 C    21.912581     0.610984    10.857361
 C    21.330451    -0.198659     9.870914
 C    20.320314     0.311045     9.044570
 C    19.383796     2.266755     6.715432
 C    18.433530     3.042742     5.756773
 C    20.732838     3.043795     6.755233
 C    19.705144     0.903476     6.035940
 C    16.684414     0.665884     7.364155
 C    15.686915     1.051740     6.454294
 C    15.165341     0.150629     5.513933
 C    15.634543    -1.167821     5.460357
 C    16.638514    -1.567677     6.354600
 C    17.154054    -0.660170     7.289264
 C    16.788642     1.116720     9.903452
 C    17.098175     2.175934    11.001859
 C    15.248257     0.887200     9.905677
 C    17.413102    -0.228620    10.377012
 H    13.971503     6.039846     8.268742
 H    14.417950     8.446368     8.634600
 H    16.761508     9.230824     9.080272
 H    18.619386     7.596912     9.136170
 H    20.137650     3.461045    10.294325
 H    21.896943     2.576669    11.767458
 H    22.700608     0.218787    11.500891
 H    21.657222    -1.232217     9.745370
 H    19.868214    -0.345841     8.310576
 H    18.259974     4.073010     6.095722
 H    18.914732     3.091108     4.766374
 H    17.470056     2.534132     5.636233
 H    21.476064     2.521296     7.374710
 H    21.125062     3.108984     5.727136
 H    20.613019     4.061630     7.140164
 H    18.833246     0.246198     5.969474
 H    20.038108     1.123627     5.008055
 H    20.534048     0.385569     6.534808
 H    15.289306     2.059551     6.487585
 H    14.387389     0.486127     4.826647
 H    15.229068    -1.871775     4.733050
 H    17.027826    -2.586626     6.323452
 H    17.949376    -0.988025     7.948485
 H    18.173768     2.365287    11.095324
 H    16.577599     3.125034    10.815509
 H    16.741007     1.780203    11.966526
 H    14.693236     1.800087     9.666823
 H    14.960333     0.105415     9.187978
 H    14.949228     0.556945    10.913932
 H    17.060131    -0.405487    11.406576
 H    17.064309    -1.074674     9.771474
 H    18.506524    -0.204823    10.399775
