   66
FINAL HEAT OF FORMATION = -1138.039043
 N     5.796902     7.812674     3.909024
 C     5.627035     7.153437     2.627584
 C     4.890597     8.715574     4.472123
 C     5.141845     5.834111     2.557377
 C     5.002425     5.229596     1.295200
 H     4.616716     4.209959     1.241949
 C     6.032443     7.831016     1.454405
 C     5.884035     7.192978     0.217106
 H     6.192840     7.718223    -0.688054
 C     5.355763     5.895468     0.117477
 C     4.789057     5.019628     3.787334
 H     4.999707     5.584107     4.699101
 H     5.375875     4.086143     3.804874
 H     3.721345     4.743431     3.775323
 B     3.192012     8.148562     4.726687
 H     2.888299     7.113572     4.243018
 B     5.047533    10.407340     4.553901
 H     6.021864    10.862438     4.056360
 C     5.170031     5.241162    -1.241264
 H     6.026171     5.451521    -1.901867
 H     4.261655     5.629201    -1.734594
 H     5.064183     4.150131    -1.145275
 C     6.642274     9.218761     1.514974
 H     5.905944     9.959882     1.856959
 H     7.003233     9.521698     0.521637
 H     7.491322     9.253186     2.216434
 B     3.734079     9.548738     3.652380
 H     3.675600     9.414279     2.477832
 B     2.247342     9.668840     4.634397
 H     1.200033     9.722534     4.074643
 B     3.401830    11.043343     4.607191
 H     3.155787    12.067041     4.055591
 H     6.731914     7.800163     4.329328
 N     4.228477     6.909222     6.828400
 C     4.886228     6.726155     8.108923
 C     3.902211     8.146456     6.264939
 C     6.271310     6.485669     8.177127
 C     6.866439     6.304872     9.438597
 H     7.942317     6.128609     9.490294
 C     4.098560     6.714641     9.283382
 C     4.727096     6.524560    10.519808
 H     4.119231     6.520600    11.425927
 C     6.115052     6.333112    10.617452
 C     7.151556     6.382724     6.946186
 H     6.554080     6.466149     6.034890
 H     7.678808     5.414334     6.937313
 H     7.914641     7.179119     6.948475
 B     5.244340     9.330572     6.010676
 H     6.291834     9.074478     6.494793
 B     2.359593     8.859271     6.183408
 H     1.477156     8.244744     6.681071
 C     6.776195     6.167451    11.975474
 H     6.173812     5.519621    12.632138
 H     6.881549     7.146656    12.474561
 H     7.779653     5.726837    11.877335
 C     2.591727     6.880852     9.225011
 H     2.317627     7.886772     8.876761
 H     2.151050     6.726657    10.220402
 H     2.135292     6.157982     8.529722
 B     3.761011     9.564935     7.084886
 H     3.906887     9.547703     8.259408
 B     4.403072    10.911026     6.102637
 H     4.882162    11.844036     6.662123
 B     2.635301    10.601973     6.129435
 H     1.873060    11.328546     6.680684
 H     3.763780     6.095132     6.413106
