   54
FINAL HEAT OF FORMATION = -1304.439125
 C     9.125461     5.466513    10.805418
 C     7.703143     6.206714    11.468568
 C     7.523234     4.281402     9.193814
 C     6.415053     4.858049     9.710468
 C     9.116060     3.955369    10.940999
 C     9.866884     3.220680    11.857900
 H    10.512743     3.736750    12.567875
 C     9.779717     1.816094    11.860830
 H    10.371352     1.240226    12.573722
 C     8.935773     1.156181    10.955589
 H     8.871701     0.067382    10.963661
 C     8.164489     1.895175    10.038813
 H     7.495126     1.394105     9.339619
 C     8.258167     3.284866    10.035120
 C     9.341952     5.819476     9.345725
 C    10.290201     6.720671     8.863222
 H    10.937531     7.252398     9.560177
 C    10.399319     6.939243     7.477290
 H    11.145014     7.639499     7.098536
 C     9.553971     6.264530     6.584355
 H     9.642702     6.439181     5.511380
 C     8.584873     5.365776     7.068676
 H     7.913299     4.846089     6.385374
 C     8.484013     5.147802     8.440655
 C     6.734712     5.194688    12.051548
 C     6.538225     4.952871    13.410631
 H     7.122461     5.500941    14.149412
 C     5.588122     3.997299    13.816346
 H     5.429463     3.811744    14.879486
 C     4.848941     3.282936    12.862141
 H     4.114730     2.542898    13.182967
 C     5.055613     3.513053    11.488901
 H     4.496844     2.954386    10.738128
 C     5.992740     4.463807    11.091543
 C     6.960938     7.058580    10.455975
 C     6.963173     8.452309    10.414845
 H     7.549753     9.015583    11.140208
 C     6.209864     9.119830     9.431296
 H     6.206173    10.210247     9.402105
 C     5.468564     8.390888     8.489842
 H     4.887557     8.914155     7.729399
 C     5.476498     6.983552     8.518294
 H     4.915308     6.406347     7.783526
 C     6.218744     6.326739     9.496945
 C     9.843307     6.287903    11.867082
 C    11.115619     6.554658    12.360111
 H    12.013109     6.093072    11.948229
 C    11.194384     7.465899    13.436791
 H    12.169279     7.710612    13.861784
 C    10.039055     8.067267    13.975465
 H    10.141365     8.766174    14.807320
 C     8.754150     7.783841    13.461155
 H     7.864686     8.252399    13.882461
 C     8.696046     6.885054    12.401980
