   23
FINAL HEAT OF FORMATION =  -738.808547
 C     7.895686     5.707444     9.902359
 C     8.078366     7.000607    10.388888
 C     7.054385     7.947158    10.244240
 C     5.857074     7.578006     9.610092
 C     5.702370     6.279936     9.134408
 N     6.718561     5.367711     9.286425
 C     6.526063     3.991174     8.770551
 C     7.580177     2.825728     8.848550
 C     5.407501     2.974022     9.226280
 C     6.236900     3.592443     7.270017
 C     6.287205     2.239509     8.115198
 I     6.031981     0.268387     7.386603
 H     8.642591     4.921470     9.977408
 H     9.018704     7.255765    10.876004
 H     7.186163     8.961778    10.620890
 H     5.043395     8.290919     9.482498
 H     4.805772     5.921813     8.634314
 H     7.787745     2.408519     9.841302
 H     8.474507     2.921578     8.221121
 H     4.374886     3.206183     8.939337
 H     5.489728     2.580627    10.246264
 H     7.054457     3.747496     6.556257
 H     5.255582     3.862627     6.861894
