   28
FINAL HEAT OF FORMATION =  -441.739230
 B     0.378067     6.639447     5.249853
 H     0.871529     6.070683     6.169333
 B    -2.040666     7.619773     3.999129
 H    -3.217110     7.733339     3.900190
 B    -1.246483     6.166591     4.700614
 H    -1.847854     5.232505     5.116210
 B    -0.989004     8.068591     2.574196
 H    -1.436415     8.438755     1.540897
 B     0.223987     5.873689     3.652308
 H     0.566247     4.783253     3.338149
 B     0.572024     8.410996     4.978342
 H     1.198716     9.113465     5.702929
 B     1.409775     7.234888     3.934410
 H     2.570484     7.013680     3.832138
 B     0.613620     8.677527     3.212411
 H     1.199259     9.503438     2.594551
 B    -1.007905     7.773900     5.442845
 H    -1.495415     8.022391     6.497279
 B    -0.898148     8.973762     4.102126
 H    -1.312079    10.083923     4.195028
 C     0.495067     7.153376     2.522677
 C    -1.310549     6.437909     3.046204
 N     0.928433     6.774801     1.261934
 N    -1.916816     5.633658     2.094026
 H    -1.822903     4.619032     2.143155
 H    -2.548044     6.040465     1.403691
 H     0.772490     7.385253     0.459585
 H     1.492795     5.933409     1.143091
