   72
FINAL HEAT OF FORMATION = -1216.478090
 N    10.586865     9.154625     2.351430
 N     8.535840     6.672624     1.456044
 C    12.496639    11.830479    -0.689623
 H    12.762260    11.675015    -1.736800
 C    11.461030    11.070248    -0.127212
 C     6.971742     6.146598    -0.375531
 C    11.113964    11.262933     1.225430
 C    10.029245     8.398839     3.369947
 C    10.007724    10.428910     1.844084
 H     9.542985    10.956828     2.687001
 H     9.220226    10.216462     1.105597
 C    13.201705    12.775763     0.068808
 B     7.677656     6.725928     4.041676
 C     8.780234     6.825098     2.808748
 B     8.334610     8.377489     3.562054
 C     6.168848     3.992759    -1.166058
 H     5.754290     3.006849    -0.948138
 C    11.830029    12.190692     2.010270
 C     7.226653     6.528571    -1.708400
 C    12.859075    12.938226     1.419013
 H    13.410524    13.655481     2.029294
 C     7.280110     7.090875     0.775094
 H     7.369560     8.127193     0.419051
 H     6.478637     7.061647     1.525293
 B     9.485011     8.925488     4.877066
 B    10.407907     6.671279     3.313765
 C     6.435828     4.866851    -0.104490
 B     8.069844     7.952394     5.274033
 C     6.946243     5.628940    -2.750161
 H     7.145746     5.931758    -3.779396
 C     6.419660     4.356845    -2.497854
 B     9.071374     5.589363     3.931403
 B    10.883367     7.810794     4.675330
 C    14.300757    13.615347    -0.561300
 H    13.881241    14.542971    -0.989389
 H    14.802529    13.066720    -1.373394
 H    15.057851    13.901429     0.184975
 C    10.729958    10.046519    -0.982373
 H    11.298336     9.831686    -1.899371
 H     9.736310    10.421788    -1.282817
 H    10.584735     9.103547    -0.433679
 B     8.591850     6.243369     5.506788
 C     7.791909     7.898524    -2.056563
 H     8.027704     7.952097    -3.129724
 H     8.714476     8.111829    -1.497056
 H     7.067412     8.700782    -1.834081
 B     9.682288     7.543877     5.975087
 C     6.123779     4.430121     1.316675
 H     5.875127     3.359292     1.347280
 H     5.258674     4.986510     1.718475
 H     6.973746     4.610658     1.988635
 B    10.328030     6.158376     5.026328
 C     6.134100     3.383077    -3.629230
 H     6.835730     2.531629    -3.596953
 H     6.236199     3.872686    -4.609189
 H     5.112157     2.977266    -3.549925
 C    11.511359    12.386802     3.484174
 H    12.276819    13.013861     3.964252
 H    11.471953    11.423419     4.015298
 H    10.536024    12.885647     3.620398
 H     7.670500     9.122988     2.929203
 H     8.986906     4.480666     3.519090
 H    11.204025     6.321947     2.507245
 H     9.973150     7.736088     7.111222
 H     6.557604     6.445281     3.775002
 H    12.015593     8.152845     4.772103
 H     8.091697     5.526136     6.311617
 H     7.186670     8.427534     5.912138
 H     9.586330    10.083418     5.113160
 H    11.097276     5.377868     5.487036
 H    11.545527     8.932547     2.068032
 H     9.247740     6.203111     0.889561
