   54
FINAL HEAT OF FORMATION =  -981.143610
 B     1.106399    -0.000064     8.122437
 B     0.709532     1.483021     9.126065
 B    -1.087257     1.479036     9.237350
 B    -1.583013    -0.000011     8.277112
 B     1.304133     0.000036     9.895199
 B    -0.104897     0.879551    10.598253
 B    -1.584977     0.000095    10.071405
 C    -0.262276     1.038777     7.843208
 N    -0.379189     1.671437     6.612589
 C     0.738612     2.429192     5.994919
 H     1.599270     1.749868     5.896995
 H     1.038768     3.270924     6.641118
 C     0.316251     2.947538     4.632558
 C     0.475385     4.300461     4.299407
 H     0.890955     4.992546     5.033488
 C     0.100299     4.770201     3.031630
 H     0.229080     5.824767     2.784933
 C    -0.444050     3.887213     2.087725
 H    -0.738273     4.250857     1.102730
 C    -0.610135     2.532395     2.418492
 H    -1.032564     1.839236     1.689741
 C    -0.230561     2.068101     3.683911
 H    -0.356086     1.020540     3.949622
 H     1.994978    -0.000123     7.343668
 H    -2.594143     0.000148    10.699406
 H     1.370911     2.459386     9.000401
 H    -2.532258    -0.000037     7.566571
 H     2.375912     0.000048    10.408686
 H    -1.752134     2.459268     9.167763
 H    -0.042079     1.506443    11.605782
 H    -1.325055     1.946868     6.329097
 B     0.709483    -1.483020     9.126239
 B    -1.087306    -1.478961     9.237525
 B    -0.104926    -0.879349    10.598356
 C    -0.262312    -1.038895     7.843332
 N    -0.379249    -1.671691     6.612786
 C     0.738512    -2.429558     5.995192
 H     1.599282    -1.750350     5.897453
 H     1.038463    -3.271404     6.641341
 C     0.316252    -2.947684     4.632717
 C     0.475461    -4.300539     4.299328
 H     0.891010    -4.992744     5.033308
 C     0.100474    -4.770059     3.031440
 H     0.229311    -5.824574     2.784556
 C    -0.443849    -3.886917     2.087663
 H    -0.737997    -4.250392     1.102582
 C    -0.610012    -2.532168     2.418671
 H    -1.032425    -1.838891     1.690022
 C    -0.230537    -2.068093     3.684200
 H    -0.356128    -1.020592     3.950112
 H     1.370828    -2.459423     9.000686
 H    -1.752216    -2.459179     9.168052
 H    -0.042129    -1.506125    11.605959
 H    -1.325128    -1.947107     6.329319
