   68
scf done: -1614.836659
 C     1.502846     0.000058     1.101703
 C     2.343254     0.000413     2.180709
 C     3.750550     0.000323     2.033681
 C     4.323290    -0.000162     0.797493
 C     3.449364    -0.000577    -0.270989
 C     4.082809    -0.000586    -1.499987
 C     3.274663    -0.000565    -2.595319
 C     1.863751    -0.000502    -2.457372
 C     1.283220    -0.000446    -1.229988
 C     2.111909    -0.000466    -0.131886
 C     5.643822    -0.000064     0.172884
 C     5.503275    -0.000179    -1.159005
 C    -0.006879     0.000160     0.915800
 C    -0.619024     1.235201     1.564737
 C     0.160711     2.149839     2.242240
 C    -0.353786     3.298762     2.780503
 C    -1.683989     3.586667     2.637354
 C    -2.474085     2.699186     1.966630
 C    -1.973010     1.520429     1.452979
 C    -2.931209     0.657785     0.802961
 C    -2.931259    -0.657317     0.803097
 C    -1.973147    -1.519830     1.453415
 C    -2.474315    -2.698412     1.967361
 C    -1.684329    -3.585704     2.638457
 C    -0.354154    -3.297722     2.781788
 C     0.160429    -2.148963     2.243262
 C    -0.619167    -1.234587     1.565247
 C    -0.159710    -0.000189    -0.765792
 C    -0.711979     1.332303    -1.256957
 C     0.095360     2.417105    -0.952087
 C    -0.218748     3.705139    -1.269962
 C    -1.381194     3.966322    -1.947445
 C    -2.180746     2.918482    -2.281921
 C    -1.876664     1.602156    -1.957388
 C    -2.863404     0.656528    -2.420159
 C    -2.863347    -0.656876    -2.420321
 C    -1.876700    -1.602521    -1.957387
 C    -2.180819    -2.918859    -2.281891
 C    -1.381552    -3.966768    -1.946989
 C    -0.219381    -3.705670    -1.268994
 C     0.094788    -2.417639    -0.951195
 C    -0.712217    -1.332721    -1.256589
 H     1.950935     0.000807     3.176426
 H     4.342119     0.000706     2.925351
 H     3.678551    -0.000463    -3.586194
 H     1.265881    -0.000421    -3.343735
 H     6.575923     0.000150     0.691728
 H     1.209753     1.991691     2.327158
 H     0.297220     3.976062     3.290552
 H    -2.097656     4.487809     3.035911
 H    -3.516118     2.904551     1.839451
 H    -3.759224     1.155566     0.342481
 H    -3.759312    -1.155119     0.342705
 H    -3.516337    -2.903776     1.840102
 H    -2.098036    -4.486759     3.037174
 H     0.296764    -3.974840     3.292189
 H     1.209442    -1.990767     2.328414
 H     1.010907     2.248488    -0.431068
 H     0.442696     4.495027    -0.987307
 H    -1.654470     4.964671    -2.212967
 H    -3.085263     3.103792    -2.821718
 H    -3.724808     1.118704    -2.856490
 H    -3.724701    -1.119024    -2.856777
 H    -3.085172    -3.104106    -2.821988
 H    -1.654838    -4.965098    -2.212578
 H     0.441828    -4.495612    -0.985944
 H     1.010147    -2.249117    -0.429817
 H     6.308391    -0.000107    -1.859110
