   70
scf done: -1616.085238
 H    -6.000322    -0.864277    -1.650381
 C    -4.266924    -0.000198     0.852737
 C    -3.426254    -0.000169    -0.239929
 C    -4.047578    -0.000016    -1.474810
 C    -3.248234     0.000041    -2.570037
 C    -5.669928    -0.000570     0.325161
 C    -5.524840     0.000479    -1.216719
 H    -3.660029     0.000179    -3.557527
 H    -6.215538    -0.866625     0.663273
 H    -6.216843     0.864165     0.664493
 H    -5.999120     0.866627    -1.648947
 H    -0.401289    -4.496208    -0.964989
 C    -1.451220    -0.000048     1.115178
 C    -2.272137    -0.000037     2.203821
 C    -3.680753    -0.000110     2.077421
 C    -1.837717    -0.000012    -2.436623
 C    -1.254595    -0.000069    -1.214231
 C    -2.074772    -0.000140    -0.112005
 C     0.057033    -0.000055     0.916409
 C     0.677817     1.233461     1.561422
 C    -0.093142     2.146817     2.250695
 C     0.427855     3.294005     2.786411
 C     1.756359     3.582293     2.628671
 C     2.538192     2.696227     1.946566
 C     2.030727     1.518872     1.435901
 C     2.981692     0.657429     0.773724
 C     2.981673    -0.657617     0.773641
 C     2.030691    -1.519092     1.435751
 C     2.538145    -2.696483     1.946361
 C     1.756318    -3.582535     2.628477
 C     0.427828    -3.294197     2.786298
 C    -0.093153    -2.146981     2.250643
 C     0.677805    -1.233637     1.561329
 C     0.193723     0.000029    -0.764292
 C     0.743546     1.332015    -1.259204
 C    -0.058092     2.417528    -0.941411
 C     0.254335     3.705937    -1.258335
 C     0.254708    -3.705795    -1.258868
 C    -0.057832    -2.417474    -0.941716
 C     0.743733    -1.331842    -1.259295
 H    -1.863563    -0.000087     3.193403
 H    -4.263866    -0.000132     2.974499
 H    -1.141234     1.988725     2.345916
 H    -0.216997     3.969957     3.306109
 H     2.174855     4.482367     3.024679
 H     3.578751     2.901564     1.807584
 H     3.804081     1.155679     0.303744
 H     3.804046    -1.155835     0.303598
 H     3.578693    -2.901840     1.807330
 H     2.174795    -4.482632     3.024453
 H    -0.217010    -3.970135     3.306031
 H    -1.141227    -1.988827     2.345961
 H    -0.967126     2.246860    -0.409878
 H    -0.401724     4.496238    -0.964294
 H    -0.966899    -2.246968    -0.410193
 H     1.680893    -4.966139    -2.215995
 C     1.408759     3.967730    -1.949738
 C     2.201861     2.919740    -2.297860
 C     1.899650     1.602700    -1.973109
 C     2.879149     0.657016    -2.450923
 C     2.879239    -0.656438    -2.450964
 C     1.899853    -1.602296    -1.973250
 C     2.202173    -2.919254    -2.298244
 C     1.409161    -3.967368    -1.950321
 H    -1.241091     0.000065    -3.324383
 H     1.680421     4.966572    -2.215217
 H     3.099721     3.105094    -2.848727
 H     3.734154     1.119123    -2.899850
 H     3.734310    -1.118394    -2.899921
 H     3.100042    -3.104424    -2.849156
