   66
scf done: -1538.715456
 C     0.001302     4.167745     1.517004
 C     0.001718     4.630279     0.243985
 C     0.001890     4.035332    -2.187767
 H     0.001409     4.864967     2.327676
 H     0.002158     5.682207     0.051160
 H     0.002349     5.058269    -2.499502
 C     0.000565     1.894136     0.807721
 C     0.000715     2.799662     1.815800
 C     0.001555     3.724248    -0.821013
 C     0.001639     3.040906    -3.105767
 C     0.001045     1.686031    -2.743425
 C     0.000714     1.367939    -1.434695
 C     0.000980     2.378701    -0.490534
 C     0.000008     0.377885     0.834212
 C    -1.237757    -0.134327     1.567136
 C    -2.161932     0.731429     2.116013
 C    -3.310119     0.296982     2.722181
 C    -3.590722    -1.040936     2.780809
 C    -2.697654    -1.916383     2.235739
 C    -1.520178    -1.490885     1.655065
 C    -0.658344    -2.532686     1.148658
 C     0.656267    -2.533136     1.148800
 C     1.518745    -1.491928     1.655335
 C     1.237308    -0.135165     1.567347
 C     0.000082     0.003048    -0.781943
 C    -1.331658    -0.610407    -1.202685
 C    -2.416687     0.233258    -1.020720
 C    -3.703723    -0.119840    -1.297595
 C    -3.964845    -1.365617    -1.806557
 C    -2.917496    -2.205736    -2.019494
 C    -1.601662    -1.861349    -1.733590
 C    -0.657510    -2.905915    -2.048576
 C     0.655716    -2.906377    -2.048569
 C     1.600580    -1.862497    -1.733456
 C     1.331413    -0.611417    -1.202452
 H     0.000399     2.490439     2.839899
 H     0.001898     3.291401    -4.145233
 H     0.000870     0.929588    -3.498735
 H    -2.014350     1.782449     2.041135
 H    -3.992922     1.013952     3.125283
 H    -4.490722    -1.395485     3.235039
 H    -2.897777    -2.966826     2.262587
 H    -1.156931    -3.417092     0.810025
 H     1.154317    -3.417892     0.810286
 H    -2.247741     1.212928    -0.633737
 H    -4.493325     0.576226    -1.114772
 H    -4.962561    -1.671568    -2.036498
 H    -3.102094    -3.176820    -2.427915
 H    -1.120466    -3.820810    -2.356259
 H     1.118038    -3.821594    -2.356250
 H     2.248748     1.211172    -0.633133
 C     2.695828    -1.918252     2.236211
 C     3.589407    -1.043423     2.781437
 C     3.309716     0.294692     2.722814
 C     2.161944     0.729948     2.116447
 C     2.916206    -2.207805    -2.019209
 C     3.964143    -1.368489    -1.805984
 C     3.703865    -0.122587    -1.296883
 C     2.417044     0.231421    -1.020192
 H     2.895212    -2.968835     2.263097
 H     4.489092    -1.398587     3.235809
 H     3.992923     1.011183     3.126084
 H     2.015054     1.781072     2.041634
 H     3.100149    -3.178975    -2.427725
 H     4.961668    -1.675151    -2.035813
 H     4.493947     0.572865    -1.113804
