  212
scf done: -3351.038342
 C     0.815024    -0.007833     0.008349
 C    -0.815024     0.007833    -0.008349
 C     1.444881     0.312975    -1.366803
 C    -1.444881    -0.312975     1.366803
 C    -1.408572     1.374271    -0.419933
 C     1.408572    -1.374271     0.419933
 C     1.403537     1.030064     0.988486
 C    -1.403537    -1.030064    -0.988486
 C     1.027257     1.075504     2.318446
 C    -1.027257    -1.075504    -2.318446
 C    -1.058231    -1.413632     2.122173
 C     1.058231     1.413632    -2.122173
 C     1.032508    -2.557245    -0.188598
 C    -1.032508     2.557245     0.188598
 C     2.430428     1.862259     0.607428
 C    -2.430428    -1.862259    -0.607428
 C    -2.529954     0.393658     1.816228
 C     2.529954    -0.393658    -1.816228
 C     2.470432    -1.438767     1.294216
 C    -2.470432     1.438767    -1.294216
 C     1.587278     1.952437     3.215319
 C    -1.587278    -1.952437    -3.215319
 C    -1.697951    -1.767996     3.279411
 C     1.697951     1.767996    -3.279411
 C     1.652397    -3.755091     0.079650
 C    -1.652397     3.755091    -0.079650
 C     3.048251     2.731155     1.485365
 C    -3.048251    -2.731155    -1.485365
 C    -3.228836     0.045448     2.961353
 C     3.228836    -0.045448    -2.961353
 C     3.137979    -2.615072     1.569360
 C    -3.137979     2.615072    -1.569360
 C     2.596433     2.784805     2.778499
 C    -2.596433    -2.784805    -2.778499
 C    -2.797327    -1.029550     3.682016
 C     2.797327     1.029550    -3.682016
 C     2.709751    -3.767430     0.962341
 C    -2.709751     3.767430    -0.962341
 H     0.284788     0.402592     2.671697
 H    -0.284788    -0.402592    -2.671697
 H    -0.240436    -2.005477     1.793779
 H     0.240436     2.005477    -1.793779
 H     0.245205    -2.550341    -0.903074
 H    -0.245205     2.550341     0.903074
 H     2.789203     1.827824    -0.394323
 H    -2.789203    -1.827824     0.394323
 H    -2.880128     1.230547     1.259307
 H     2.880128    -1.230547    -1.259307
 H     2.820444    -0.546270     1.758102
 H    -2.820444     0.546270    -1.758102
 C     1.141009     1.930851     4.659689
 C    -1.141009    -1.930851    -4.659689
 C    -1.262907    -2.948104     4.115170
 C     1.262907     2.948104    -4.115170
 C     1.163768    -5.012601    -0.601734
 C    -1.163768     5.012601     0.601734
 C     4.233606     3.537311     1.008665
 C    -4.233606    -3.537311    -1.008665
 C    -4.445255     0.850657     3.347363
 C     4.445255    -0.850657    -3.347363
 C     4.331024    -2.585441     2.494845
 C    -4.331024     2.585441    -2.494845
 H     3.046790     3.465261     3.463663
 H    -3.046790    -3.465261    -3.463663
 H    -3.315237    -1.314277     4.570983
 H     3.315237     1.314277    -4.570983
 H     3.208269    -4.685931     1.169257
 H    -3.208269     4.685931    -1.169257
 C     5.047508    -0.386724    -4.649485
 C    -5.047508     0.386724     4.649485
 C    -4.899945     3.960436    -2.739685
 C     4.899945    -3.960436     2.739685
 C     4.724238     4.506321     2.054892
 C    -4.724238    -4.506321    -2.054892
 C     5.493364    -0.712352    -2.265327
 C    -5.493364     0.712352     2.265327
 C    -5.415418     1.729703    -1.877671
 C     5.415418    -1.729703     1.877671
 C     5.361182     2.582166     0.681409
 C    -5.361182    -2.582166    -0.681409
 C     4.072416    -2.308440    -3.494751
 C    -4.072416     2.308440     3.494751
 C    -3.936505     1.996817    -3.829671
 C     3.936505    -1.996817     3.829671
 C     3.883608     4.326994    -0.231807
 C    -3.883608    -4.326994     0.231807
 C     1.038976     2.508209    -5.545629
 C    -1.038976    -2.508209     5.545629
 C    -1.990228     6.220762     0.239018
 C     1.990228    -6.220762    -0.239018
 C     1.651996     3.122967     5.431149
 C    -1.651996    -3.122967    -5.431149
 C    -0.018341     3.558641    -3.609677
 C     0.018341    -3.558641     3.609677
 C     0.267433     5.275829     0.194090
 C    -0.267433    -5.275829    -0.194090
 C    -0.367427     1.928205     4.757093
 C     0.367427    -1.928205    -4.757093
 C     2.341161     4.008646    -4.090578
 C    -2.341161    -4.008646     4.090578
 C    -1.216181     4.840066     2.102408
 C     1.216181    -4.840066    -2.102408
 C     1.676197     0.676218     5.311961
 C    -1.676197    -0.676218    -5.311961
 H     0.709981     3.345539    -6.141977
 H    -0.709981    -3.345539     6.141977
 H    -1.602376     7.086681     0.751931
 H     1.602376    -7.086681    -0.751931
 H     1.260004     3.095394     6.435566
 H    -1.260004    -3.095394    -6.435566
 H     1.937415     2.121775    -5.997759
 H    -1.937415    -2.121775     5.997759
 H    -3.022239     6.104353     0.531078
 H     3.022239    -6.104353    -0.531078
 H     2.727426     3.127424     5.508795
 H    -2.727426    -3.127424    -5.508795
 H     0.284413     1.740630    -5.602184
 H    -0.284413    -1.740630     5.602184
 H    -1.956405     6.428995    -0.818778
 H     1.956405    -6.428995     0.818778
 H     1.339016     4.051976     4.980377
 H    -1.339016    -4.051976    -4.980377
 H     2.055170     4.846873    -4.707987
 H    -2.055170    -4.846873     4.707987
 H    -0.871985     5.739394     2.590746
 H     0.871985    -5.739394    -2.590746
 H     1.348379     0.615313     6.339105
 H    -1.348379    -0.615313    -6.339105
 H     2.501554     4.371785    -3.088303
 H    -2.501554    -4.371785     3.088303
 H    -0.586388     4.029368     2.427663
 H     0.586388    -4.029368    -2.427663
 H     1.332050    -0.205849     4.796565
 H    -1.332050     0.205849    -4.796565
 H     3.280651     3.631377    -4.461495
 H    -3.280651    -3.631377     4.461495
 H    -2.221749     4.641632     2.436997
 H     2.221749    -4.641632    -2.436997
 H     2.754601     0.666579     5.303728
 H    -2.754601    -0.666579    -5.303728
 H    -0.308567     4.374607    -4.253494
 H     0.308567    -4.374607     4.253494
 H     0.645021     6.151902     0.700701
 H    -0.645021    -6.151902    -0.700701
 H    -0.664876     1.908829     5.794875
 H     0.664876    -1.908829    -5.794875
 H    -0.824533     2.842757    -3.596032
 H     0.824533    -2.842757     3.596032
 H     0.343320     5.448064    -0.867993
 H    -0.343320    -5.448064     0.867993
 H    -0.786573     2.813756     4.308167
 H     0.786573    -2.813756    -4.308167
 H     0.087062     3.951826    -2.612392
 H    -0.087062    -3.951826     2.612392
 H     0.904832     4.444709     0.446040
 H    -0.904832    -4.444709    -0.446040
 H    -0.811504     1.072037     4.277881
 H     0.811504    -1.072037    -4.277881
 H     5.903328    -0.998167    -4.888139
 H    -5.903328     0.998167     4.888139
 H    -5.737385     3.887380    -3.415467
 H     5.737385    -3.887380     3.415467
 H     5.553302     5.072126     1.660169
 H    -5.553302    -5.072126    -1.660169
 H     4.347355    -0.471232    -5.465842
 H    -4.347355     0.471232     5.465842
 H    -4.173685     4.619397    -3.189197
 H     4.173685    -4.619397     3.189197
 H     3.955874     5.207388     2.341274
 H    -3.955874    -5.207388    -2.341274
 H     5.386008     0.635911    -4.594275
 H    -5.386008    -0.635911     4.594275
 H    -5.257344     4.416566    -1.830038
 H     5.257344    -4.416566     1.830038
 H     5.072073     4.000559     2.941638
 H    -5.072073    -4.000559    -2.941638
 H     6.368225    -1.294138    -2.514126
 H    -6.368225     1.294138     2.514126
 H    -6.273711     1.683304    -2.531077
 H     6.273711    -1.683304     2.531077
 H     6.228282     3.127350     0.339698
 H    -6.228282    -3.127350    -0.339698
 H     5.796554     0.316717    -2.153606
 H    -5.796554    -0.316717     2.153606
 H    -5.736529     2.139530    -0.933154
 H     5.736529    -2.139530     0.933154
 H     5.645353     2.011003     1.551163
 H    -5.645353    -2.011003    -1.551163
 H     5.126909    -1.055661    -1.311857
 H    -5.126909     1.055661     1.311857
 H    -5.076029     0.721546    -1.704117
 H     5.076029    -0.721546     1.704117
 H     5.077837     1.888254    -0.093244
 H    -5.077837    -1.888254     0.093244
 H     4.941428    -2.887864    -3.767901
 H    -4.941428     2.887864     3.767901
 H    -4.790668     1.964464    -4.489134
 H     4.790668    -1.964464     4.489134
 H     4.752068     4.862578    -0.584184
 H    -4.752068    -4.862578     0.584184
 H     3.681026    -2.715409    -2.577398
 H    -3.681026     2.715409     2.577398
 H    -3.562275     0.992539    -3.727987
 H     3.562275    -0.992539     3.727987
 H     3.546370     3.690206    -1.032346
 H    -3.546370    -3.690206     1.032346
 H     3.325958    -2.439503    -4.261678
 H    -3.325958     2.439503     4.261678
 H    -3.171449     2.590915    -4.303849
 H     3.171449    -2.590915     4.303849
 H     3.108213     5.047308    -0.028343
 H    -3.108213    -5.047308     0.028343
