   66
scf done: -2158.009606
Cl     2.823478     2.523039     0.563620
Cl     0.729763    -3.165788    -0.653405
 C     0.440973    -0.525396    -0.340987
 C    -0.986472    -0.221041     0.023979
 C    -0.491461     1.356778     0.055171
 C     0.896921     0.759862    -0.054692
 C     2.210556     1.018234     0.042885
 C     3.132694    -0.012037    -0.267214
 C     4.515313     0.211322    -0.263235
 C     5.384141    -0.776166    -0.560592
 C     4.917378    -2.049717    -0.872444
 C     3.592776    -2.300838    -0.877688
 C     2.663711    -1.296291    -0.581941
 C     1.273251    -1.553365    -0.555917
 C    -1.247704    -0.958102     1.350286
 C    -0.201641    -1.377754     2.151967
 C    -0.409745    -2.087231     3.304101
 C    -1.680322    -2.413588     3.700076
 C    -2.730520    -2.024926     2.915465
 C    -2.514075    -1.321093     1.756835
 C    -2.080088    -0.599822    -0.938470
 C    -1.881943    -1.544494    -1.917498
 C    -2.889375    -1.906981    -2.773919
 C    -4.128007    -1.330245    -2.672983
 C    -4.344640    -0.390077    -1.699713
 C    -3.333291    -0.036048    -0.844193
 C    -0.835106     2.183733     1.339637
 C    -2.316350     2.132052     1.649894
 C    -0.457424     3.657025     1.300656
 C    -0.117096     1.669259     2.575735
 C    -0.718726     2.130335    -1.317299
 C    -0.647639     1.262890    -2.568330
 C    -2.032441     2.877568    -1.442972
 C     0.410001     3.127247    -1.546392
 H     4.880510     1.184531    -0.025774
 H     6.434217    -0.578787    -0.556903
 H     5.608810    -2.829400    -1.108138
 H     3.236284    -3.277676    -1.114932
 H     0.804513    -1.132576     1.895621
 H     0.432117    -2.385227     3.891370
 H    -1.845818    -2.970496     4.597106
 H    -3.731885    -2.279470     3.189644
 H    -3.363021    -1.078297     1.161149
 H    -0.921246    -1.985105    -2.044503
 H    -2.697154    -2.638496    -3.529282
 H    -4.912880    -1.607925    -3.343041
 H    -5.303145     0.073552    -1.602498
 H    -3.529082     0.696886    -0.093273
 H    -2.654478     1.125970     1.818648
 H    -2.921932     2.584039     0.884896
 H    -2.497200     2.677493     2.563307
 H    -0.900367     4.215509     0.500330
 H    -0.808523     4.100065     2.219201
 H     0.607496     3.801254     1.273919
 H    -0.224651     2.400207     3.361675
 H     0.938913     1.535780     2.409613
 H    -0.523509     0.751060     2.946778
 H     0.141431     0.530339    -2.535805
 H    -1.570014     0.765907    -2.793310
 H    -0.432876     1.915488    -3.400183
 H    -2.880835     2.223949    -1.373277
 H    -2.064030     3.320516    -2.426567
 H    -2.156505     3.676667    -0.737590
 H     0.134785     3.761563    -2.374423
 H     0.636925     3.763650    -0.718672
 H     1.316147     2.619202    -1.829990
