   66
scf done: -1140.090819
 N     1.262098    -0.303783     0.790871
 C     2.536077    -0.731369     0.344461
 C     0.740610     0.933139     0.442389
 C     2.636960    -1.553820    -0.756455
 C     3.886870    -1.959062    -1.175334
 H     3.955735    -2.588163    -2.039342
 C     3.675864    -0.399502     1.066724
 C     4.895094    -0.840050     0.627874
 H     5.769883    -0.580813     1.188241
 C     5.025663    -1.604886    -0.509146
 C     1.452926    -2.067479    -1.489446
 H     0.542631    -1.827193    -0.975316
 H     1.522102    -3.138631    -1.589620
 H     1.405225    -1.656305    -2.486102
 B     0.712264     1.348723    -1.181685
 H     1.160692     0.586168    -1.945278
 B     0.762538     2.250563     1.479265
 H     1.277072     2.087976     2.519402
 C     6.366690    -2.035600    -0.979696
 H     6.953246    -2.438419    -0.170485
 H     6.912623    -1.201526    -1.391648
 H     6.290675    -2.788935    -1.744620
 C     3.608403     0.401882     2.315841
 H     3.390955     1.436023     2.111767
 H     4.549699     0.359351     2.835210
 H     2.850763     0.041633     2.993252
 B     1.670141     2.245741    -0.009409
 H     2.830381     2.087132    -0.030598
 B     0.741046     3.101351    -1.219451
 H     1.273074     3.665123    -2.101840
 B     0.747892     3.667704     0.454014
 H     1.297525     4.651567     0.786069
 H     1.101501    -0.499140     1.751484
 N    -1.262135    -0.303734    -0.790910
 C    -2.536102    -0.731327    -0.344475
 C    -0.740621     0.933169    -0.442394
 C    -2.636950    -1.553829     0.756406
 C    -3.886843    -1.959110     1.175293
 H    -3.955680    -2.588258     2.039269
 C    -3.675907    -0.399449    -1.066700
 C    -4.895123    -0.840034    -0.627844
 H    -5.769926    -0.580790    -1.188185
 C    -5.025657    -1.604917     0.509147
 C    -1.452889    -2.067516     1.489337
 H    -0.542616    -1.827263     0.975154
 H    -1.522092    -3.138664     1.589531
 H    -1.405116    -1.656330     2.485985
 B    -0.712264     1.348712     1.181687
 H    -1.160714     0.586154     1.945262
 B    -0.762516     2.250617    -1.479242
 H    -1.277056     2.088064    -2.519381
 C    -6.366666    -2.035648     0.979732
 H    -6.953416    -2.438037     0.170449
 H    -6.912411    -1.201672     1.392134
 H    -6.290630    -2.789318     1.744324
 C    -3.608481     0.401970    -2.315797
 H    -3.390996     1.436099    -2.111704
 H    -4.549800     0.359480    -2.835126
 H    -2.850881     0.041717    -2.993252
 B    -1.670119     2.245783     0.009433
 H    -2.830363     2.087200     0.030620
 B    -0.741003     3.101341     1.219495
 H    -1.273017     3.665104     2.101898
 B    -0.747836     3.667733    -0.453956
 H    -1.297445     4.651618    -0.785987
 H    -1.101579    -0.499040    -1.751541
