   58
scf done: -1978.382243
 I     3.456518     1.633447    -0.300264
 I    -3.461685     1.623010     0.300718
 C     0.804223    -0.851401     0.074787
 C    -0.801908    -0.853779    -0.074672
 C    -0.693328     0.630625     0.062939
 C    -1.412252     1.753523     0.140146
 C    -0.707481     2.982787     0.076952
 C    -1.369262     4.213850     0.150909
 C    -0.699483     5.382152     0.076918
 C     0.682838     5.384251    -0.076950
 C     1.356185     4.217988    -0.150773
 C     0.698161     2.984914    -0.076737
 C     1.406660     1.757784    -0.139968
 C     0.691163     0.632719    -0.062523
 C     1.284687    -1.242403     1.440567
 C     1.101797    -0.603826     2.634771
 C     1.645516    -1.154163     3.771418
 C     2.370719    -2.318893     3.705384
 C     2.595989    -2.934208     2.499145
 C     2.060626    -2.378095     1.367561
 C     2.255977    -2.703788    -0.032847
 C     3.016378    -3.686160    -0.608276
 C     3.153007    -3.698682    -1.973543
 C     2.553105    -2.731210    -2.740362
 C     1.779308    -1.753332    -2.161161
 C     1.610692    -1.753969    -0.803635
 C    -1.605409    -1.759266     0.803415
 C    -1.774189    -1.759491     2.160897
 C    -2.544511    -2.740296     2.739814
 C    -3.140830    -3.709741     1.972717
 C    -3.004183    -3.696381     0.607447
 C    -2.247269    -2.711166     0.032306
 C    -2.052989    -2.384343    -1.367987
 C    -2.586375    -2.941891    -2.499799
 C    -2.363261    -2.325306    -3.705789
 C    -1.642145    -1.158017    -3.771385
 C    -1.100375    -0.606206    -2.634525
 C    -1.281053    -1.245903    -1.440587
 H    -2.430393     4.218083     0.267607
 H    -1.232715     6.306072     0.136338
 H     1.213241     6.309789    -0.136509
 H     2.417302     4.225450    -0.267432
 H     0.557903     0.316693     2.688005
 H     1.511108    -0.665897     4.712614
 H     2.786680    -2.733974     4.598211
 H     3.199097    -3.815412     2.446263
 H     3.510875    -4.419098    -0.007165
 H     3.746297    -4.454541    -2.441808
 H     2.689441    -2.734286    -3.800256
 H     1.332184    -1.005075    -2.774020
 H    -1.329892    -1.009681     2.773923
 H    -2.680927    -2.744118     3.799694
 H    -3.731425    -4.467857     2.440736
 H    -3.496053    -4.430931     0.006146
 H    -3.186402    -3.825219    -2.447281
 H    -2.777747    -2.741494    -4.598788
 H    -1.509451    -0.668951    -4.712410
 H    -0.559609     0.316178    -2.687367
