   54
scf done: -1306.606912
 C    -0.000017     0.629995     0.816717
 C    -0.000108     0.630204    -0.816042
 C     0.000445    -1.872267     0.660030
 C     0.000302    -1.872208    -0.661362
 C    -1.207896    -0.024632     1.420501
 C    -2.258788     0.627468     1.997799
 H    -2.274529     1.696122     2.032962
 C    -3.303401    -0.099420     2.526490
 H    -4.124442     0.410520     2.983034
 C    -3.297668    -1.465622     2.467246
 H    -4.113360    -2.021086     2.877893
 C    -2.246096    -2.130993     1.875789
 H    -2.241496    -3.198113     1.816275
 C    -1.210561    -1.411420     1.359792
 C     1.208209    -0.024223     1.420305
 C     2.258816     0.628275     1.997663
 H     2.274134     1.696940     2.032842
 C     3.303636    -0.098224     2.526487
 H     4.124411     0.412018     2.983167
 C     3.298487    -1.464424     2.467128
 H     4.114356    -2.019580     2.877840
 C     2.247269    -2.130186     1.875484
 H     2.243106    -3.197305     1.815908
 C     1.211440    -1.411005     1.359528
 C    -1.208175    -0.023991    -1.419934
 C    -2.259187     0.628635    -1.996477
 H    -2.274856     1.697317    -2.030813
 C    -3.303760    -0.097771    -2.525890
 H    -4.124882     0.412560    -2.981851
 C    -3.297993    -1.464029    -2.467990
 H    -4.113644    -2.019088    -2.879262
 C    -2.246518    -2.129928    -1.876998
 H    -2.241930    -3.197101    -1.818433
 C    -1.210919    -1.410829    -1.360469
 C     1.208033    -0.023618    -1.420137
 C     2.258722     0.629423    -1.996828
 H     2.273953     1.698116    -2.031157
 C     3.303560    -0.096571    -2.526235
 H     4.124464     0.414052    -2.982247
 C     3.298362    -1.462836    -2.468201
 H     4.114242    -2.017596    -2.879437
 C     2.247086    -2.129136    -1.877310
 H     2.242888    -3.196312    -1.818799
 C     1.211253    -1.410446    -1.360676
 C    -0.000290     2.116965     0.682555
 C    -0.000749     3.271296     1.414409
 H    -0.000783     3.283035     2.483630
 C    -0.001085     4.443122     0.689971
 H    -0.001389     5.379924     1.205295
 C    -0.001099     4.443290    -0.688640
 H    -0.001394     5.380193    -1.203784
 C    -0.000700     3.271607    -1.413262
 H    -0.000723     3.283507    -2.482477
 C    -0.000296     2.117146    -0.681539
