   74
scf done: -1244.124251
 C    -0.600700    -0.028827    -0.121121
 C    -0.940236    -1.509475    -0.411192
 C     1.004401     0.183892     0.171066
 C    -2.344509    -1.703189    -0.953640
 C     1.173110     1.303615     1.194285
 C    -1.653747     0.372201     0.981038
 C     1.785978     0.576451    -1.106185
 C    -1.707284     1.851857     1.331316
 C    -2.397516     0.574519    -1.832869
 C     2.693610    -1.706831    -1.515295
 C    -0.994287     0.853255    -1.328593
 C    -3.085405     0.122715     0.438849
 C    -1.527295    -0.502201     2.211355
 C     3.204235     1.034078    -0.779201
 C     3.280437    -0.559090     1.051788
 C    -0.933735     2.335813    -1.011445
 C    -3.340723    -1.320158     0.111822
 C     1.850764    -1.005127     0.718000
 C    -3.390931     0.968571    -0.769920
 C     3.994108    -0.117164    -0.206450
 C     2.587503     1.722432     1.479750
 C     1.898619    -0.563721    -2.098104
 C     4.087413    -1.235031    -1.205531
 C     2.048303    -2.174504    -0.234251
 C    -1.800646    -1.953347     1.883669
 C     3.324879     0.552770     2.057599
 C    -1.908220     2.695324     0.087848
 C     3.218185     2.179207     0.194062
 C    -2.560133    -0.874740    -2.186204
 C    -3.292945     2.430685    -0.439059
 C    -0.849277    -2.407994     0.810791
 C    -3.198427    -2.137435     1.363181
 H    -0.339913     0.645753    -2.157381
 H     2.728484    -2.523061    -2.222168
 H     2.562808     2.537177     2.189483
 H     2.860068     0.245325     2.984399
 H    -1.847272    -1.153789    -2.950761
 H     0.136334    -2.469678     1.217375
 H    -4.392897     0.737404    -1.108715
 H    -2.552164     1.182602    -2.715284
 H     0.927960    -0.908636    -2.413988
 H    -1.211134     2.880551    -1.904567
 H     4.583211    -0.890589    -2.102883
 H     4.677002    -2.048684    -0.806192
 H    -3.753394     0.409480     1.243370
 H    -2.567283     1.992683     1.973731
 H    -4.037201     2.694089     0.299618
 H     4.234554     2.509822     0.358468
 H     0.061246     2.662433    -0.774139
 H     1.316666     1.412538    -1.592592
 H     2.671625     3.023039    -0.205395
 H    -3.546365    -1.053495    -2.592453
 H    -0.278254    -1.872133    -1.176541
 H     2.394035    -0.199802    -2.988606
 H     1.429967    -1.345211     1.651120
 H     3.659214     1.347416    -1.710605
 H    -3.381415    -3.184339     1.163903
 H    -3.930844    -1.817475     2.091750
 H    -0.545893    -0.412837     2.651823
 H    -2.456033    -2.751949    -1.197857
 H     4.351405     0.806638     2.283909
 H     0.719690     0.999530     2.123034
 H    -1.656063    -2.552159     2.771382
 H    -3.486937     3.030421    -1.317836
 H     0.653358     2.178583     0.866991
 H     2.701731    -2.888281     0.249999
 H     1.148305    -2.710631    -0.451908
 H    -0.872467     2.185897     1.910974
 H    -1.802261     3.740958     0.338597
 H    -4.345253    -1.418912    -0.279829
 H     3.785021    -1.425966     1.458318
 H    -1.108988    -3.413550     0.505266
 H    -2.231497    -0.157974     2.958458
 H     4.987666     0.225505     0.053575
