   23
scf done:  -739.591705
 C     7.852985     5.676131     9.871060
 C     8.046066     6.934734    10.351260
 C     7.040392     7.856976    10.211139
 C     5.867160     7.493022     9.593110
 C     5.737201     6.221668     9.135965
 N     6.719055     5.344935     9.280199
 C     6.529573     4.008036     8.776617
 C     7.538052     2.883516     8.854407
 C     5.451892     3.033915     9.209862
 C     6.256463     3.625825     7.335332
 C     6.300167     2.343194     8.152467
 I     6.044862     0.424312     7.437089
 H     8.589362     4.908907     9.944697
 H     8.969427     7.180687    10.824927
 H     7.167338     8.851519    10.579597
 H     5.064170     8.183483     9.466782
 H     4.857971     5.867531     8.647103
 H     7.741369     2.472363     9.828009
 H     8.420710     2.972115     8.245016
 H     4.439275     3.260438     8.925063
 H     5.522631     2.643717    10.209285
 H     7.057472     3.772898     6.633296
 H     5.296206     3.890978     6.928618
