   50
scf done:  -980.444107
 B     5.734493     3.460383     3.617511
 B     4.219911     4.336791     3.641064
 B     3.618288     4.336763     5.283060
 B     5.739072     5.208243     3.605052
 B     4.420342     5.757950     4.645754
 C     4.480932     3.031758     4.667956
 C     2.772110     1.670839     4.042162
 H     2.166752     2.534773     3.820843
 N     3.939766     1.771023     4.469539
 C     2.152038     0.378513     3.814870
 C     0.862469     0.326855     3.342552
 H     0.331127     1.235285     3.148080
 C     0.256027    -0.883211     3.120254
 H    -0.746547    -0.920323     2.753031
 C     0.942329    -2.042248     3.371462
 H     0.472918    -2.986991     3.199419
 C     2.233645    -1.995247     3.844422
 H     2.763563    -2.902665     4.038377
 C     2.838307    -0.790321     4.066053
 H     3.839617    -0.727024     4.432794
 H     2.477757     4.161313     5.494561
 H     6.029999     2.669593     2.811300
 H     3.485948     4.161128     2.742868
 H     6.091817     5.781447     2.642703
 H     3.818189     6.742117     4.425196
 B     4.759018     3.460386     6.279673
 B     6.273600     4.336795     6.256118
 B     6.875222     4.336762     4.614122
 B     4.754438     5.208247     6.292128
 B     6.073168     5.757951     5.251424
 C     6.012579     3.031759     5.229230
 C     7.721400     1.670843     5.855028
 H     8.326758     2.534778     6.076345
 N     6.553745     1.771024     5.427650
 C     8.341474     0.378518     6.082322
 C     9.631043     0.326863     6.554640
 H    10.162384     1.235293     6.749111
 C    10.237487    -0.883202     6.776940
 H    11.240060    -0.920313     7.144163
 C     9.551186    -2.042241     6.525734
 H    10.020598    -2.986983     6.697778
 C     8.259870    -1.995242     6.052774
 H     7.729953    -2.902661     5.858821
 C     7.655207    -0.790317     5.831141
 H     6.653896    -0.727022     5.464400
 H     8.015754     4.161311     4.402622
 H     4.463511     2.669599     7.085887
 H     7.007563     4.161135     7.154315
 H     4.401693     5.781453     7.254475
 H     6.675321     6.742118     5.471979
