   55
scf done: -1020.977725
 B    -2.202527    -0.035642    -1.428089
 H    -1.423547    -0.109293    -2.296830
 B    -2.987428     1.429159    -0.942816
 H    -2.801452     2.398201    -1.574262
 B    -2.930653     1.526469     0.816322
 H    -2.744658     2.560506     1.335207
 B    -2.133887     0.114277     1.449092
 H    -1.314121     0.134016     2.279942
 B    -3.003062    -1.313533     0.993264
 H    -2.843719    -2.293176     1.617056
 B    -3.037428    -1.407247    -0.768488
 H    -2.910553    -2.447031    -1.294781
 B    -3.923352    -0.001830    -1.382968
 H    -4.536400    -0.055831    -2.383044
 B    -3.850605     0.164168     1.474713
 H    -4.418945     0.246269     2.499008
 B    -4.429274    -0.793551     0.110581
 H    -5.428315    -1.408049     0.170593
 B    -4.392260     0.974416     0.003392
 H    -5.363035     1.635351    -0.003213
 N    -0.335012     1.162243    -0.151706
 N    -0.384442    -1.158624     0.087356
 C    -1.686300     0.811239    -0.054204
 C    -1.726092    -0.754439     0.053812
 C     0.422811    -0.041920    -0.361643
 H     1.344859     0.001440     0.189353
 H     0.664212    -0.158667    -1.409989
 C    -0.078963    -2.396514    -0.556435
 H    -0.204732    -2.323791    -1.631908
 H    -0.779355    -3.134864    -0.201633
 C     1.309787    -2.833416    -0.238003
 C     1.761788    -2.807758     1.062253
 H     1.113306    -2.444049     1.831214
 C     3.026777    -3.235906     1.364385
 H     3.368388    -3.212245     2.376984
 C     3.855619    -3.696822     0.370438
 H     4.843043    -4.030313     0.607040
 C     3.412402    -3.723307    -0.925176
 H     4.053008    -4.076051    -1.704604
 C     2.144883    -3.289217    -1.226901
 H     1.805079    -3.305875    -2.241580
 C     0.189602     2.084096     0.809978
 H     0.322548     1.625898     1.781665
 H    -0.531425     2.875234     0.926715
 C     1.482140     2.663065     0.345168
 C     2.519995     2.840830     1.226204
 H     2.409607     2.530363     2.244539
 C     3.697963     3.411566     0.812067
 H     4.498227     3.543606     1.508147
 C     3.848799     3.802558    -0.492201
 H     4.766499     4.242710    -0.818268
 C     2.816861     3.621473    -1.380133
 H     2.929836     3.922903    -2.399452
 C     1.640905     3.055454    -0.964484
 H     0.836351     2.908090    -1.653217
