   66
scf done: -1537.986774
 C    -0.001828     4.232696     1.574780
 C    -0.001695     4.709316     0.275750
 C    -0.001051     4.123162    -2.192400
 H    -0.002296     4.940341     2.404110
 H    -0.001998     5.782555     0.082142
 H    -0.001306     5.169683    -2.498851
 C    -0.000836     1.920164     0.836187
 C    -0.001404     2.844417     1.869605
 C    -0.001150     3.797488    -0.810423
 C    -0.000614     3.116393    -3.142377
 C    -0.000242     1.742902    -2.786122
 C    -0.000262     1.399780    -1.450531
 C    -0.000737     2.415178    -0.481129
 C    -0.000204     0.384094     0.874818
 C    -1.265566    -0.135323     1.599214
 C    -2.225334     0.754587     2.113846
 C    -3.416698     0.328072     2.697197
 C    -3.712184    -1.032470     2.763222
 C    -2.788030    -1.934735     2.257178
 C    -1.558373    -1.521234     1.705167
 C    -0.672657    -2.590837     1.278860
 C     0.675422    -2.590112     1.278941
 C     1.560078    -1.519622     1.705147
 C     1.265815    -0.133987     1.599303
 C     0.000046     0.000958    -0.819061
 C    -1.351748    -0.621987    -1.241048
 C    -2.458885     0.239283    -1.093342
 C    -3.769096    -0.128252    -1.378196
 C    -4.032865    -1.410338    -1.857446
 C    -2.966382    -2.276117    -2.031743
 C    -1.625826    -1.921729    -1.740625
 C    -0.672849    -2.981471    -2.016040
 C     0.673523    -2.981226    -2.016515
 C     1.626236    -1.921217    -1.741264
 C     1.351871    -0.621682    -1.241297
 H    -0.001510     2.521920     2.910879
 H    -0.000597     3.382129    -4.199727
 H     0.000083     0.977642    -3.561808
 H    -2.065047     1.824197     2.026075
 H    -4.123231     1.068503     3.072369
 H    -4.648420    -1.383859     3.196212
 H    -2.995463    -3.004803     2.298705
 H    -1.168991    -3.529379     1.024660
 H     1.172771    -3.528147     1.024768
 H    -2.291603     1.247984    -0.725467
 H    -4.574555     0.588500    -1.221582
 H    -5.048437    -1.727677    -2.092558
 H    -3.150560    -3.280095    -2.416393
 H    -1.141960    -3.925117    -2.303653
 H     1.142785    -3.924698    -2.304476
 H     2.291459     1.248222    -0.724900
 C     2.790311    -1.931878     2.256794
 C     3.713650    -1.028680     2.762677
 C     3.416639     0.331536     2.696958
 C     2.224674     0.756861     2.113949
 C     2.966856    -2.275213    -2.032549
 C     4.033180    -1.409324    -1.857929
 C     3.769199    -0.127481    -1.378141
 C     2.458914     0.239707    -1.093196
 H     2.998868    -3.001735     2.298193
 H     4.650420    -1.379091     3.195304
 H     4.122441     1.072696     3.072069
 H     2.063191     1.826317     2.026487
 H     3.151214    -3.279043    -2.417533
 H     5.048794    -1.726413    -2.093194
 H     4.574548     0.589301    -1.221142
