   68
scf done: -1614.086743
 C     1.531452    -0.000122     1.119417
 C     2.399349    -0.000281     2.216911
 C     3.824147    -0.000449     2.062277
 C     4.405415    -0.000366     0.795957
 C     3.508137    -0.000050    -0.286868
 C     4.153266    -0.000406    -1.536979
 C     3.322569    -0.000525    -2.656311
 C     1.896793    -0.000310    -2.512601
 C     1.299164    -0.000068    -1.257229
 C     2.142284     0.000002    -0.140525
 C     5.735174    -0.000882     0.165236
 C     5.586542    -0.000921    -1.201294
 C     0.000572    -0.000080     0.967406
 C    -0.608451     1.264502     1.605812
 C     0.208529     2.218678     2.237913
 C    -0.287692     3.414128     2.753421
 C    -1.642695     3.717124     2.628013
 C    -2.473037     2.795693     2.006554
 C    -1.994909     1.561533     1.520929
 C    -2.999212     0.674517     0.960093
 C    -2.999374    -0.674123     0.960070
 C    -1.995199    -1.561448     1.520613
 C    -2.473490    -2.795701     2.005869
 C    -1.643297    -3.717418     2.627074
 C    -0.288244    -3.414644     2.752595
 C     0.208147    -2.219148     2.237398
 C    -0.608682    -1.264662     1.605530
 C    -0.170172     0.000094    -0.813502
 C    -0.736219     1.351935    -1.294930
 C     0.096962     2.458567    -1.028631
 C    -0.234290     3.770420    -1.348970
 C    -1.444954     4.035813    -1.986573
 C    -2.279526     2.969678    -2.278267
 C    -1.962631     1.627751    -1.954093
 C    -2.976039     0.674129    -2.367031
 C    -2.976488    -0.672591    -2.366845
 C    -1.963583    -1.626722    -1.953863
 C    -2.281186    -2.968496    -2.277866
 C    -1.446940    -4.034992    -1.986496
 C    -0.235855    -3.770120    -1.349520
 C     0.096074    -2.458391    -1.029289
 C    -0.736826    -1.351435    -1.295103
 H     2.001426    -0.000333     3.232237
 H     4.432676    -0.000684     2.967997
 H     3.733680    -0.000806    -3.667048
 H     1.284017    -0.000378    -3.413899
 H     6.685885    -0.001175     0.692858
 H     1.278431     2.047524     2.302072
 H     0.396842     4.117497     3.227524
 H    -2.044823     4.657109     3.005078
 H    -3.537577     3.008921     1.901447
 H    -3.897193     1.170339     0.586437
 H    -3.897511    -1.169698     0.586455
 H    -3.538060    -3.008748     1.900677
 H    -2.045535    -4.657485     3.003821
 H     0.396136    -4.118217     3.226616
 H     1.278076    -2.048175     2.301554
 H     1.050040     2.290137    -0.534641
 H     0.454519     4.575694    -1.096007
 H    -1.731776     5.052715    -2.252917
 H    -3.226592     3.155949    -2.786438
 H    -3.873964     1.143048    -2.775793
 H    -3.874743    -1.141038    -2.775419
 H    -3.228478    -3.154385    -2.785747
 H    -1.734402    -5.051784    -2.252582
 H     0.452758    -4.575681    -1.096946
 H     1.049466    -2.290345    -0.535742
 H     6.403207    -0.001263    -1.919410
