  212
scf done: -3348.760957
 C     0.841034    -0.004472     0.012822
 C    -0.841034     0.004472    -0.012822
 C     1.478772     0.323953    -1.388731
 C    -1.478772    -0.323953     1.388731
 C    -1.443581     1.396143    -0.433966
 C     1.443581    -1.396143     0.433966
 C     1.430765     1.054011     1.015750
 C    -1.430765    -1.054011    -1.015750
 C     1.046284     1.103476     2.369689
 C    -1.046284    -1.103476    -2.369689
 C    -1.088276    -1.442904     2.157827
 C     1.088276     1.442904    -2.157827
 C     1.065347    -2.602225    -0.185888
 C    -1.065347     2.602225     0.185888
 C     2.488252     1.893851     0.632643
 C    -2.488252    -1.893851    -0.632643
 C    -2.589830     0.395528     1.846223
 C     2.589830    -0.395528    -1.846223
 C     2.531245    -1.460115     1.320386
 C    -2.531245     1.460115    -1.320386
 C     1.629211     1.987218     3.289408
 C    -1.629211    -1.987218    -3.289408
 C    -1.742728    -1.804866     3.339999
 C     1.742728     1.804866    -3.339999
 C     1.705510    -3.821933     0.079905
 C    -1.705510     3.821933    -0.079905
 C     3.128496     2.767958     1.526550
 C    -3.128496    -2.767958    -1.526550
 C    -3.300767     0.047214     3.010020
 C     3.300767    -0.047214    -3.010020
 C     3.221928    -2.652223     1.593175
 C    -3.221928     2.652223    -1.593175
 C     2.667784     2.819242     2.845484
 C    -2.667784    -2.819242    -2.845484
 C    -2.856910    -1.049268     3.746150
 C     2.856910     1.049268    -3.746150
 C     2.787655    -3.826010     0.970727
 C    -2.787655     3.826010    -0.970727
 H     0.278004     0.426564     2.723415
 H    -0.278004    -0.426564    -2.723415
 H    -0.255379    -2.045917     1.820710
 H     0.255379     2.045917    -1.820710
 H     0.257376    -2.593381    -0.907805
 H    -0.257376     2.593381     0.907805
 H     2.851846     1.854536    -0.388837
 H    -2.851846    -1.854536     0.388837
 H    -2.945096     1.244910     1.272587
 H     2.945096    -1.244910    -1.272587
 H     2.880614    -0.548317     1.794308
 H    -2.880614     0.548317    -1.794308
 C     1.179840     1.969531     4.761724
 C    -1.179840    -1.969531    -4.761724
 C    -1.312593    -3.011773     4.189973
 C     1.312593     3.011773    -4.189973
 C     1.217595    -5.107127    -0.611182
 C    -1.217595     5.107127     0.611182
 C     4.344053     3.578347     1.046700
 C    -4.344053    -3.578347    -1.046700
 C    -4.543873     0.860195     3.402182
 C     4.543873    -0.860195    -3.402182
 C     4.439858    -2.621907     2.530531
 C    -4.439858     2.621907    -2.530531
 H     3.137920     3.501963     3.546919
 H    -3.137920    -3.501963    -3.546919
 H    -3.385887    -1.337190     4.652389
 H     3.385887     1.337190    -4.652389
 H     3.304868    -4.758711     1.174322
 H    -3.304868     4.758711    -1.174322
 C     5.157592    -0.387463    -4.727653
 C    -5.157592     0.387463     4.727653
 C    -5.056559     4.012885    -2.736191
 C     5.056559    -4.012885     2.736191
 C     4.868888     4.539666     2.122814
 C    -4.868888    -4.539666    -2.122814
 C     5.609904    -0.711094    -2.297795
 C    -5.609904     0.711094     2.297795
 C    -5.521748     1.703308    -1.927104
 C     5.521748    -1.703308     1.927104
 C     5.476633     2.594634     0.685708
 C    -5.476633    -2.594634    -0.685708
 C     4.175058    -2.348981    -3.550603
 C    -4.175058     2.348981     3.550603
 C    -4.025606     2.074605    -3.909255
 C     4.025606    -2.074605     3.909255
 C     3.987038     4.410116    -0.199835
 C    -3.987038    -4.410116     0.199835
 C     1.074934     2.567737    -5.647560
 C    -1.074934    -2.567737     5.647560
 C    -2.072401     6.330159     0.248934
 C     2.072401    -6.330159    -0.248934
 C     1.758393     3.145992     5.563062
 C    -1.758393    -3.145992    -5.563062
 C     0.020905     3.659598    -3.676344
 C    -0.020905    -3.659598     3.676344
 C     0.235698     5.393145     0.187490
 C    -0.235698    -5.393145    -0.187490
 C    -0.354988     2.036498     4.870268
 C     0.354988    -2.036498    -4.870268
 C     2.430722     4.073586    -4.167256
 C    -2.430722    -4.073586     4.167256
 C    -1.261950     4.930910     2.140793
 C     1.261950    -4.930910    -2.140793
 C     1.668790     0.659181     5.409418
 C    -1.668790    -0.659181    -5.409418
 H     0.768721     3.429758    -6.258593
 H    -0.768721    -3.429758     6.258593
 H    -1.683435     7.216130     0.770436
 H     1.683435    -7.216130    -0.770436
 H     1.368433     3.116942     6.590337
 H    -1.368433    -3.116942    -6.590337
 H     1.978536     2.142484    -6.104411
 H    -1.978536    -2.142484     6.104411
 H    -3.121628     6.201566     0.551296
 H     3.121628    -6.201566    -0.551296
 H     2.854668     3.104210     5.629891
 H    -2.854668    -3.104210    -5.629891
 H     0.281145     1.810433    -5.706298
 H    -0.281145    -1.810433     5.706298
 H    -2.047477     6.544582    -0.828979
 H     2.047477    -6.544582     0.828979
 H     1.475835     4.113966     5.124794
 H    -1.475835    -4.113966    -5.124794
 H     2.152360     4.935012    -4.792789
 H    -2.152360    -4.935012     4.792789
 H    -0.913980     5.849044     2.637716
 H     0.913980    -5.849044    -2.637716
 H     1.338137     0.600751     6.457620
 H    -1.338137    -0.600751    -6.457620
 H     2.605796     4.438011    -3.145324
 H    -2.605796    -4.438011     3.145324
 H    -0.615914     4.107527     2.470688
 H     0.615914    -4.107527    -2.470688
 H     1.275049    -0.217987     4.878263
 H    -1.275049     0.217987    -4.878263
 H     3.379924     3.673409    -4.549546
 H    -3.379924    -3.673409     4.549546
 H    -2.284235     4.722874     2.486579
 H     2.284235    -4.722874    -2.486579
 H     2.766218     0.598173     5.395116
 H    -2.766218    -0.598173    -5.395116
 H    -0.258223     4.496701    -4.332508
 H     0.258223    -4.496701     4.332508
 H     0.612866     6.290686     0.701395
 H    -0.612866    -6.290686    -0.701395
 H    -0.654665     1.999790     5.928495
 H     0.654665    -1.999790    -5.928495
 H    -0.816717     2.948704    -3.662113
 H     0.816717    -2.948704     3.662113
 H     0.303725     5.570224    -0.895437
 H    -0.303725    -5.570224     0.895437
 H    -0.741064     2.971816     4.442555
 H     0.741064    -2.971816    -4.442555
 H     0.135841     4.059073    -2.660224
 H    -0.135841    -4.059073     2.660224
 H     0.898995     4.555367     0.438202
 H    -0.898995    -4.555367    -0.438202
 H    -0.849929     1.202246     4.357813
 H     0.849929    -1.202246    -4.357813
 H     6.033188    -1.006264    -4.969477
 H    -6.033188     1.006264     4.969477
 H    -5.916472     3.936683    -3.416574
 H     5.916472    -3.936683     3.416574
 H     5.722843     5.106181     1.725360
 H    -5.722843    -5.106181    -1.725360
 H     4.446267    -0.477067    -5.561177
 H    -4.446267     0.477067     5.561177
 H    -4.339720     4.715492    -3.184653
 H     4.339720    -4.715492     3.184653
 H     4.102056     5.265022     2.430444
 H    -4.102056    -5.265022    -2.430444
 H     5.497053     0.656766    -4.673896
 H    -5.497053    -0.656766     4.673896
 H    -5.419326     4.445205    -1.792804
 H     5.419326    -4.445205     1.792804
 H     5.217032     4.005163     3.018031
 H    -5.217032    -4.005163    -3.018031
 H     6.507915    -1.294656    -2.550878
 H    -6.507915     1.294656     2.550878
 H    -6.398194     1.657360    -2.590959
 H     6.398194    -1.657360     2.590959
 H     6.365003     3.143579     0.338499
 H    -6.365003    -3.143579    -0.338499
 H     5.909031     0.340445    -2.180398
 H    -5.909031    -0.340445     2.180398
 H    -5.855416     2.080070    -0.949626
 H     5.855416    -2.080070     0.949626
 H     5.767270     1.993252     1.559088
 H    -5.767270    -1.993252    -1.559088
 H     5.239173    -1.065870    -1.326726
 H    -5.239173     1.065870     1.326726
 H    -5.152962     0.678533    -1.784657
 H     5.152962    -0.678533     1.784657
 H     5.172195     1.903821    -0.112323
 H    -5.172195    -1.903821     0.112323
 H     5.066232    -2.934846    -3.821270
 H    -5.066232     2.934846     3.821270
 H    -4.895973     2.035480    -4.581440
 H     4.895973    -2.035480     4.581440
 H     4.875538     4.949558    -0.560414
 H    -4.875538    -4.949558     0.560414
 H     3.771439    -2.764571    -2.618026
 H    -3.771439     2.764571     2.618026
 H    -3.612158     1.060901    -3.836314
 H     3.612158    -1.060901     3.836314
 H     3.622975     3.781014    -1.022629
 H    -3.622975    -3.781014     1.022629
 H     3.420358    -2.490733    -4.336855
 H    -3.420358     2.490733     4.336855
 H    -3.264571     2.716559    -4.375386
 H     3.264571    -2.716559     4.375386
 H     3.209414     5.151653     0.029333
 H    -3.209414    -5.151653    -0.029333
