   66
scf done: -2157.095864
Cl    -1.983230     3.081609    -0.769888
Cl    -1.983131    -3.081720     0.769800
 C    -0.728975    -0.683643     0.199801
 C     0.792531    -0.728070     0.417256
 C     0.792498     0.728098    -0.417246
 C    -0.729007     0.683587    -0.199817
 C    -1.905230     1.381612    -0.348927
 C    -3.155861     0.701166    -0.160075
 C    -4.404545     1.360767    -0.303337
 C    -5.597376     0.687710    -0.151953
 C    -5.597354    -0.687898     0.151975
 C    -4.404502    -1.360926     0.303327
 C    -3.155838    -0.701296     0.160025
 C    -1.905185    -1.381703     0.348860
 C     1.608855    -1.874532    -0.174406
 C     1.001914    -2.993139    -0.765146
 C     1.751368    -4.060611    -1.265520
 C     3.143096    -4.041041    -1.194322
 C     3.771519    -2.930701    -0.629026
 C     3.015642    -1.867902    -0.132361
 C     1.026032    -0.661671     2.029273
 C     0.105747     0.358108     2.730198
 C     0.683582    -2.041923     2.626580
 C     2.467379    -0.362613     2.492037
 C     1.608726     1.874616     0.174426
 C     1.001672     2.993130     0.765229
 C     1.751017     4.060675     1.265610
 C     3.142746     4.041276     1.194364
 C     3.771278     2.931023     0.629016
 C     3.015510     1.868149     0.132341
 C     1.026016     0.661660    -2.029242
 C     0.105785    -0.358179    -2.730145
 C     0.683501     2.041886    -2.626606
 C     2.467381     0.362647    -2.492005
 H    -4.410158     2.420677    -0.542930
 H    -6.539142     1.222693    -0.269593
 H    -6.539102    -1.222904     0.269649
 H    -4.410088    -2.420834     0.542930
 H    -0.079549    -3.037924    -0.843523
 H     1.235567    -4.909826    -1.713876
 H     3.730920    -4.873412    -1.580448
 H     4.859435    -2.882206    -0.578302
 H     3.540996    -1.009501     0.275625
 H    -0.957246     0.175207     2.532072
 H     0.254343     0.262087     3.815480
 H     0.339735     1.393170     2.462098
 H     1.252096    -2.853257     2.154660
 H     0.940718    -2.031918     3.695851
 H    -0.381743    -2.277389     2.550867
 H     2.884271     0.557467     2.073595
 H     2.446341    -0.240069     3.584773
 H     3.148424    -1.196334     2.286498
 H    -0.079793     3.037793     0.843654
 H     1.235126     4.909808     1.714015
 H     3.730485     4.873708     1.580488
 H     4.859198     2.882647     0.578258
 H     3.540959     1.009824    -0.275681
 H     0.339922    -1.393234    -2.462134
 H    -0.957209    -0.175409    -2.531914
 H     0.254275    -0.262061    -3.815435
 H    -0.381825     2.277340    -2.550870
 H     1.252013     2.853249    -2.154733
 H     0.940595     2.031857    -3.695886
 H     2.446317     0.240030    -3.584730
 H     3.148393     1.196414    -2.286545
 H     2.884339    -0.557378    -2.073515
