   66
scf done: -1139.319722
 N     1.374846    -0.255003     0.820468
 C     2.650809    -0.730584     0.342694
 C     0.848215     0.992012     0.484818
 C     2.718858    -1.579768    -0.777435
 C     3.977914    -2.031522    -1.199498
 H     4.027745    -2.683531    -2.074114
 C     3.822775    -0.416636     1.070924
 C     5.048644    -0.907921     0.619643
 H     5.950145    -0.662515     1.184355
 C     5.154266    -1.700169    -0.529874
 C     1.502722    -2.067377    -1.518929
 H     0.579814    -1.814237    -0.988914
 H     1.549289    -3.158408    -1.644647
 H     1.449240    -1.630235    -2.527366
 B     0.666143     1.388571    -1.179166
 H     1.117193     0.641165    -1.986209
 B     0.817922     2.338820     1.492234
 H     1.345641     2.209769     2.553045
 C     6.496267    -2.176794    -1.019537
 H     7.146454    -2.475726    -0.185993
 H     7.020902    -1.380603    -1.569482
 H     6.396100    -3.033624    -1.698184
 C     3.779015     0.410559     2.328888
 H     3.476330     1.445999     2.126421
 H     4.767156     0.435756     2.804269
 H     3.070326     0.009922     3.069777
 B     1.702882     2.325185    -0.047134
 H     2.884415     2.196778    -0.126689
 B     0.717464     3.169603    -1.247605
 H     1.240832     3.737517    -2.157466
 B     0.764329     3.760713     0.438294
 H     1.327014     4.763939     0.757485
 H     1.194710    -0.483607     1.794737
 N    -1.374819    -0.255039    -0.820384
 C    -2.650812    -0.730568    -0.342633
 C    -0.848178     0.991991    -0.484799
 C    -2.718936    -1.579677     0.777554
 C    -3.978020    -2.031384     1.199577
 H    -4.027910    -2.683334     2.074233
 C    -3.822729    -0.416676    -1.070961
 C    -5.048630    -0.907918    -0.619718
 H    -5.950093    -0.662562    -1.184512
 C    -5.154330    -1.700068     0.529856
 C    -1.502853    -2.067262     1.519147
 H    -0.579908    -1.814144     0.989187
 H    -1.549430    -3.158289     1.644901
 H    -1.449444    -1.630086     2.527573
 B    -0.666100     1.388642     1.179168
 H    -1.117154     0.641280     1.986251
 B    -0.817870     2.338745    -1.492286
 H    -1.345590     2.209640    -2.553090
 C    -6.496363    -2.176632     1.019494
 H    -7.146708    -2.475112     0.185914
 H    -7.020775    -1.380556     1.569820
 H    -6.396277    -3.033744     1.697799
 C    -3.778882     0.410378    -2.329016
 H    -3.476226     1.445845    -2.126639
 H    -4.766986     0.435511    -2.804475
 H    -3.070129     0.009669    -3.069804
 B    -1.702830     2.325201     0.047085
 H    -2.884365     2.196811     0.126646
 B    -0.717405     3.169677     1.247509
 H    -1.240768     3.737646     2.157338
 B    -0.764265     3.760695    -0.438423
 H    -1.326944     4.763908    -0.757669
 H    -1.194649    -0.483715    -1.794631
