   58
scf done: -1977.602171
 I    -3.539436    -1.694391    -0.189999
 I     3.539826    -1.693580     0.189865
 C    -0.851187     0.842161     0.049842
 C     0.850963     0.842358    -0.049793
 C     0.704070    -0.659978     0.040028
 C     1.432738    -1.816153     0.087094
 C     0.725660    -3.064233     0.048637
 C     1.392558    -4.315346     0.094462
 C     0.703854    -5.508032     0.047936
 C    -0.702571    -5.508201    -0.047851
 C    -1.391560    -4.315678    -0.094402
 C    -0.724964    -3.064403    -0.048560
 C    -1.432342    -1.816483    -0.087016
 C    -0.703933    -0.660148    -0.039959
 C    -1.394731     1.361119     1.366968
 C    -1.304572     0.814180     2.642081
 C    -1.891939     1.495119     3.716151
 C    -2.564706     2.703218     3.509332
 C    -2.700013     3.230505     2.221671
 C    -2.129088     2.544076     1.149979
 C    -2.251867     2.749282    -0.295736
 C    -2.963938     3.709238    -1.014061
 C    -3.057510     3.580681    -2.402462
 C    -2.466156     2.495003    -3.054474
 C    -1.736188     1.539840    -2.336020
 C    -1.603036     1.683229    -0.958207
 C     1.602652     1.683567     0.958262
 C     1.735944     1.540101     2.336054
 C     2.465740     2.495387     3.054524
 C     3.056794     3.581245     2.402536
 C     2.963131     3.709850     1.014152
 C     2.251228     2.749782     0.295806
 C     2.128470     2.544588    -1.149917
 C     2.699197     3.231172    -2.221609
 C     2.563993     2.703884    -3.509276
 C     1.891510     1.495630    -3.716116
 C     1.304306     0.814532    -2.642046
 C     1.394382     1.361459    -1.366918
 H     2.479018    -4.316917     0.167324
 H     1.249575    -6.450187     0.085362
 H    -1.248063    -6.450489    -0.085262
 H    -2.478019    -4.317499    -0.167278
 H    -0.807403    -0.142410     2.805156
 H    -1.830993     1.073675     4.719183
 H    -3.012919     3.223570     4.355580
 H    -3.268812     4.146126     2.058230
 H    -3.461799     4.532391    -0.501078
 H    -3.616035     4.318906    -2.977758
 H    -2.576271     2.385272    -4.132948
 H    -1.299383     0.691479    -2.856464
 H     1.299375     0.691589     2.856458
 H     2.575975     2.385607     4.132981
 H     3.615187     4.319560     2.977845
 H     3.460756     4.533159     0.501189
 H     3.267775     4.146929    -2.058157
 H     3.012087     3.224353    -4.355515
 H     1.830651     1.074196    -4.719160
 H     0.807324    -0.142159    -2.805131
