   54
scf done: -1306.001190
 C     0.000163     0.648615     0.853357
 C    -0.000147     0.648169    -0.853134
 C     0.000159    -1.906596     0.678311
 C    -0.000106    -1.907112    -0.677991
 C    -1.225502    -0.020312     1.453211
 C    -2.301468     0.638728     2.042332
 H    -2.315068     1.728004     2.084053
 C    -3.365221    -0.102208     2.572115
 H    -4.203505     0.416057     3.037534
 C    -3.358766    -1.495157     2.504441
 H    -4.191144    -2.064901     2.917239
 C    -2.287078    -2.167394     1.903664
 H    -2.281165    -3.255077     1.837159
 C    -1.227344    -1.433895     1.382985
 C     1.226042    -0.020308     1.452794
 C     2.302020     0.638748     2.041856
 H     2.315660     1.728031     2.083482
 C     3.365809    -0.102167     2.571609
 H     4.204057     0.416117     3.037070
 C     3.359370    -1.495113     2.503947
 H     4.191764    -2.064847     2.916724
 C     2.287661    -2.167369     1.903216
 H     2.281813    -3.255049     1.836630
 C     1.227895    -1.433901     1.382582
 C    -1.226041    -0.020844    -1.452417
 C    -2.302149     0.638239    -2.041284
 H    -2.315817     1.727517    -2.082821
 C    -3.365904    -0.102659    -2.571094
 H    -4.204337     0.415627    -3.036225
 C    -3.359338    -1.495623    -2.503746
 H    -4.191593    -2.065331    -2.916832
 C    -2.287570    -2.167910    -1.903170
 H    -2.281655    -3.255601    -1.836744
 C    -1.227926    -1.434450    -1.382301
 C     1.225553    -0.020849    -1.452830
 C     2.301513     0.638265    -2.041922
 H     2.315093     1.727545    -2.083524
 C     3.365229    -0.102587    -2.571880
 H     4.203546     0.415721    -3.037176
 C     3.358733    -1.495548    -2.504477
 H     4.191003    -2.065247    -2.917562
 C     2.287088    -2.167866    -1.903717
 H     2.281198    -3.255564    -1.837392
 C     1.227476    -1.434469    -1.382699
 C     0.000177     2.153826     0.696268
 C     0.000310     3.330989     1.436895
 H     0.000514     3.344269     2.526994
 C     0.000118     4.526138     0.700130
 H     0.000225     5.479985     1.228007
 C    -0.000201     4.525760    -0.701990
 H    -0.000340     5.479318    -1.230384
 C    -0.000353     3.330170    -1.438050
 H    -0.000623     3.342710    -2.528149
 C    -0.000137     2.153476    -0.696692
