   74
scf done: -1243.184252
 C    -0.624977    -0.029484    -0.121351
 C    -0.970022    -1.539657    -0.411936
 C     1.041085     0.185486     0.177752
 C    -2.398771    -1.736770    -0.970435
 C     1.211900     1.318514     1.226797
 C    -1.704439     0.382499     1.002691
 C     1.836151     0.592849    -1.123604
 C    -1.754973     1.890302     1.350598
 C    -2.450635     0.579478    -1.870456
 C     2.764537    -1.726448    -1.556809
 C    -1.024027     0.872388    -1.350762
 C    -3.163289     0.123441     0.440517
 C    -1.578655    -0.507433     2.255069
 C     3.280399     1.062682    -0.783892
 C     3.363636    -0.574834     1.068371
 C    -0.968224     2.381583    -1.027720
 C    -3.415371    -1.348131     0.114097
 C     1.907680    -1.032206     0.722172
 C    -3.467680     0.982727    -0.792674
 C     4.086427    -0.115921    -0.213063
 C     2.651765     1.742069     1.522068
 C     1.954279    -0.560041    -2.141830
 C     4.182115    -1.246294    -1.237130
 C     2.106427    -2.212743    -0.257433
 C    -1.849229    -1.986420     1.922285
 C     3.403842     0.548027     2.100583
 C    -1.967521     2.745100     0.084137
 C     3.293951     2.218259     0.217413
 C    -2.612969    -0.896073    -2.226708
 C    -3.374031     2.470242    -0.455883
 C    -0.876508    -2.449847     0.834409
 C    -3.270162    -2.177526     1.388738
 H    -0.351092     0.663180    -2.192051
 H     2.802040    -2.553047    -2.283894
 H     2.627333     2.567162     2.252264
 H     2.930534     0.224989     3.042609
 H    -1.883739    -1.182675    -3.003191
 H     0.129536    -2.505192     1.249574
 H    -4.486780     0.744089    -1.144326
 H    -2.607534     1.197245    -2.771914
 H     0.964510    -0.910688    -2.465963
 H    -1.241017     2.937970    -1.940817
 H     4.687838    -0.889038    -2.149649
 H     4.784717    -2.077619    -0.835662
 H    -3.847568     0.419028     1.257358
 H    -2.621937     2.040614     2.017916
 H    -4.135911     2.736265     0.295125
 H     4.330174     2.553424     0.388807
 H     0.044622     2.713117    -0.773772
 H     1.353087     1.447384    -1.612528
 H     2.738184     3.083074    -0.182140
 H    -3.616537    -1.079405    -2.645197
 H    -0.291766    -1.909277    -1.190290
 H     2.458322    -0.181501    -3.047227
 H     1.476893    -1.388574     1.669488
 H     3.744013     1.391091    -1.730781
 H    -3.454869    -3.245363     1.186304
 H    -4.018959    -1.852817     2.130255
 H    -0.581293    -0.409125     2.709921
 H    -2.512187    -2.806647    -1.217708
 H     4.449190     0.808293     2.335667
 H     0.745120     1.005637     2.171103
 H    -1.704166    -2.594095     2.829757
 H    -3.571730     3.081812    -1.351851
 H     0.684744     2.213803     0.894752
 H     2.768804    -2.949070     0.229001
 H     1.183986    -2.750761    -0.483576
 H    -0.892426     2.230219     1.926631
 H    -1.864406     3.811792     0.339348
 H    -4.438412    -1.454659    -0.287549
 H     3.880654    -1.461339     1.474662
 H    -1.136079    -3.477540     0.527074
 H    -2.301682    -0.159805     3.013578
 H     5.099522     0.233150     0.052818
