   23
scf done:  -739.292805
 C     7.880633     5.695343     9.887765
 C     8.070199     6.979636    10.374211
 C     7.048659     7.920619    10.233923
 C     5.856576     7.546518     9.605635
 C     5.716441     6.252243     9.137207
 N     6.720065     5.353502     9.283129
 C     6.529223     3.985195     8.769525
 C     7.560777     2.844030     8.851903
 C     5.424934     2.998040     9.215688
 C     6.247877     3.603424     7.297074
 C     6.293399     2.296238     8.135444
 I     6.030300     0.330853     7.402488
 H     8.630106     4.912209     9.961419
 H     9.012379     7.229664    10.856414
 H     7.178004     8.934392    10.609215
 H     5.036862     8.249517     9.476655
 H     4.820278     5.890858     8.639620
 H     7.766242     2.425116     9.844333
 H     8.458958     2.934709     8.229261
 H     4.394511     3.233911     8.924314
 H     5.499383     2.602976    10.235115
 H     7.065627     3.755155     6.583553
 H     5.268366     3.876753     6.887011
