   72
scf done: -1217.843660
 N     1.598601     0.518034     0.234174
 N    -1.566768     0.506829     0.176459
 C     4.233536    -3.069019     0.378542
 H     4.025693    -4.096840     0.682976
 C     3.177330    -2.270774    -0.072360
 C    -3.438731    -0.914163    -0.526851
 C     3.434310    -0.940252    -0.462978
 C     0.991696     1.755882     0.195291
 C     2.294494    -0.061005    -0.925984
 H     2.668079     0.743918    -1.572687
 H     1.577515    -0.643930    -1.522285
 C     5.542818    -2.584893     0.453720
 B    -1.434809     3.103609    -0.677082
 C    -0.970719     1.747891     0.180655
 B     0.035385     2.173747    -1.152913
 C    -5.707955    -1.172863     0.286742
 H    -6.660505    -0.722079     0.572485
 C     4.745122    -0.424959    -0.375757
 C    -3.270050    -2.312391    -0.461254
 C     5.773663    -1.258126     0.077783
 H     6.786023    -0.854649     0.144103
 C    -2.303208    -0.024139    -0.981371
 H    -1.612165    -0.578371    -1.631035
 H    -2.694338     0.814192    -1.574273
 B     1.479543     3.121788    -0.645113
 B    -0.012152     2.112792     1.547385
 C    -4.672995    -0.339767    -0.149021
 B     0.025834     3.957155    -1.194810
 C    -4.332668    -3.109692    -0.020416
 H    -4.195358    -4.191923     0.024810
 C    -5.559382    -2.561465     0.362241
 B    -1.459555     3.070750     1.096544
 B     1.451697     3.067048     1.127409
 C     6.673518    -3.469904     0.909034
 H     7.141902    -3.983887     0.055441
 H     6.323694    -4.245226     1.603394
 H     7.460397    -2.891654     1.411217
 C     1.782904    -2.843556    -0.129194
 H     1.736161    -3.813088     0.382147
 H     1.452066    -3.003609    -1.167408
 H     1.051484    -2.172667     0.342571
 B    -0.875395     4.513852     0.250088
 C    -1.976205    -2.973685    -0.868267
 H    -1.988885    -4.040886    -0.613959
 H    -1.109673    -2.520493    -0.368831
 H    -1.801840    -2.897496    -1.952657
 B     0.886306     4.518478     0.274114
 C    -4.906265     1.148470    -0.223893
 H    -5.893772     1.407877     0.177034
 H    -4.865958     1.514455    -1.261224
 H    -4.155215     1.717854     0.341284
 B    -0.011834     3.888246     1.688115
 C    -6.680092    -3.433835     0.864294
 H    -6.692360    -3.469431     1.964617
 H    -6.578731    -4.466093     0.504770
 H    -7.659536    -3.055184     0.542361
 C     5.064311     1.000410    -0.754668
 H     6.112630     1.234707    -0.532363
 H     4.438603     1.723517    -0.212143
 H     4.907606     1.184688    -1.828333
 H     0.042536     1.445471    -2.095436
 H    -2.464527     2.919148     1.722304
 H    -0.016848     1.317177     2.436973
 H     1.525796     5.525945     0.307055
 H    -2.416661     3.013415    -1.347778
 H     2.440194     2.915324     1.779330
 H    -1.521296     5.517734     0.259189
 H     0.031263     4.557147    -2.226553
 H     2.482069     3.028494    -1.284742
 H    -0.021994     4.430678     2.751316
 H     2.030767     0.301928     1.126363
 H    -1.905322     0.193488     1.079126
