   55
scf done: -1020.303022
 B    -2.272315    -0.033432    -1.456950
 H    -1.505751    -0.103233    -2.362675
 B    -3.065057     1.439771    -0.939086
 H    -2.899874     2.430927    -1.578158
 B    -2.974022     1.525328     0.844518
 H    -2.792402     2.573883     1.379558
 B    -2.160808     0.093548     1.475010
 H    -1.325328     0.116522     2.318123
 B    -3.037919    -1.350661     1.010056
 H    -2.876825    -2.350807     1.637335
 B    -3.093224    -1.431420    -0.777810
 H    -2.977599    -2.483321    -1.324910
 B    -4.010496    -0.009791    -1.372678
 H    -4.648261    -0.062986    -2.379600
 B    -3.894425     0.140036     1.513340
 H    -4.457544     0.216356     2.562417
 B    -4.491781    -0.824449     0.137358
 H    -5.501561    -1.455699     0.209366
 B    -4.464672     0.966416     0.040626
 H    -5.452563     1.635130     0.054565
 N    -0.341465     1.192086    -0.173417
 N    -0.375532    -1.184799     0.060069
 C    -1.712177     0.826285    -0.062001
 C    -1.744124    -0.785296     0.044830
 C     0.424818    -0.032513    -0.426240
 H     1.387528     0.012876     0.097036
 H     0.625451    -0.146359    -1.507793
 C    -0.053438    -2.447824    -0.596342
 H    -0.170760    -2.373858    -1.696020
 H    -0.782327    -3.192225    -0.244769
 C     1.349981    -2.902985    -0.260052
 C     1.802655    -2.890672     1.066786
 H     1.141185    -2.515691     1.848245
 C     3.084184    -3.342612     1.380051
 H     3.425269    -3.327930     2.415237
 C     3.928587    -3.816462     0.371764
 H     4.929683    -4.170052     0.617627
 C     3.485322    -3.830721    -0.951287
 H     4.139222    -4.193228    -1.744243
 C     2.203713    -3.371442    -1.264353
 H     1.862254    -3.377384    -2.300785
 C     0.208840     2.105113     0.831148
 H     0.367890     1.604846     1.803675
 H    -0.544701     2.887675     0.994610
 C     1.501615     2.734095     0.359966
 C     2.591412     2.841818     1.231062
 H     2.513949     2.436968     2.241589
 C     3.773367     3.462164     0.819093
 H     4.613878     3.538167     1.508719
 C     3.878871     3.973821    -0.474765
 H     4.801586     4.453744    -0.800288
 C     2.797253     3.863148    -1.353531
 H     2.874483     4.258950    -2.366205
 C     1.616297     3.248331    -0.939160
 H     0.772640     3.153490    -1.622967
