   66
scf done: -1539.818576
 C    -0.001780     4.245610     1.616243
 C    -0.001832     4.733016     0.312022
 C    -0.001373     4.164604    -2.170613
 H    -0.002129     4.951521     2.454813
 H    -0.002221     5.813256     0.123780
 H    -0.001725     5.219967    -2.467957
 C    -0.000810     1.924063     0.856786
 C    -0.001269     2.848527     1.902229
 C    -0.001382     3.824078    -0.785516
 C    -0.000919     3.161436    -3.137128
 C    -0.000466     1.778800    -2.791615
 C    -0.000450     1.417942    -1.450807
 C    -0.000893     2.428191    -0.465136
 C    -0.000059     0.381287     0.898225
 C    -1.277252    -0.141556     1.612024
 C    -2.252072     0.757235     2.105666
 C    -3.454911     0.334593     2.687052
 C    -3.749571    -1.033307     2.770152
 C    -2.814427    -1.945378     2.281995
 C    -1.571089    -1.536587     1.732792
 C    -0.677396    -2.615687     1.335558
 C     0.680619    -2.614962     1.335427
 C     1.573308    -1.534924     1.732319
 C     1.277979    -0.140201     1.611613
 C    -0.000114     0.000693    -0.841627
 C    -1.357096    -0.624036    -1.265440
 C    -2.470283     0.246462    -1.142309
 C    -3.784960    -0.121130    -1.446456
 C    -4.049136    -1.416163    -1.913007
 C    -2.979429    -2.296167    -2.053430
 C    -1.632838    -1.941804    -1.746975
 C    -0.678017    -3.012436    -1.991479
 C     0.678377    -3.012255    -1.991612
 C     1.632949    -1.941358    -1.747267
 C     1.356898    -0.623647    -1.265740
 H    -0.001195     2.516386     2.946354
 H    -0.000934     3.438959    -4.197588
 H    -0.000141     1.017169    -3.578757
 H    -2.089290     1.831387     2.006640
 H    -4.170315     1.082952     3.046677
 H    -4.693973    -1.382910     3.201911
 H    -3.021382    -3.021020     2.337630
 H    -1.172650    -3.569986     1.113993
 H     1.176836    -3.568757     1.113787
 H    -2.303019     1.264673    -0.784725
 H    -4.593662     0.605668    -1.313241
 H    -5.067814    -1.733247    -2.162319
 H    -3.163325    -3.311630    -2.425055
 H    -1.149472    -3.968029    -2.258759
 H     1.150036    -3.967722    -2.258986
 H     2.302390     1.265378    -0.785380
 C     2.817272    -1.942398     2.281097
 C     3.751635    -1.029339     2.768893
 C     3.455501     0.338250     2.685880
 C     2.252014     0.759622     2.104917
 C     2.979581    -2.295369    -2.053914
 C     4.049072    -1.415062    -1.913713
 C     3.784604    -0.120067    -1.447236
 C     2.469870     0.247175    -1.142895
 H     3.025356    -3.017825     2.336713
 H     4.696556    -1.377935     3.200332
 H     4.170259     1.087370     3.045207
 H     2.088063     1.833601     2.005976
 H     3.163694    -3.310803    -2.425522
 H     5.067797    -1.731897    -2.163149
 H     4.593115     0.606974    -1.314215
