   70
scf done: -1617.231016
 H    -6.136709    -0.884420    -1.707945
 C    -4.369397    -0.000258     0.857691
 C    -3.504455     0.000067    -0.254899
 C    -4.138213     0.000285    -1.515681
 C    -3.317586     0.000502    -2.644488
 C    -5.799282    -0.000198     0.318306
 C    -5.645472     0.000126    -1.261228
 H    -3.742059     0.000660    -3.655722
 H    -6.366524    -0.884742     0.663314
 H    -6.366564     0.884195     0.663656
 H    -6.136853     0.884772    -1.707595
 H    -0.425890    -4.598704    -1.150847
 C    -1.488628    -0.000270     1.143865
 C    -2.343786    -0.000590     2.257756
 C    -3.776827    -0.000605     2.121031
 C    -1.885243     0.000495    -2.507407
 C    -1.277661     0.000277    -1.249825
 C    -2.110381     0.000070    -0.119034
 C     0.049225    -0.000127     0.999089
 C     0.665114     1.273722     1.622981
 C    -0.154868     2.239969     2.252232
 C     0.344501     3.443789     2.766355
 C     1.707555     3.747420     2.639656
 C     2.541624     2.818132     2.018464
 C     2.061723     1.572772     1.535970
 C     3.073531     0.679595     0.988696
 C     3.073741    -0.678942     0.988655
 C     2.062179    -1.572475     1.535826
 C     2.542449    -2.817723     2.018224
 C     1.708632    -3.747364     2.639247
 C     0.345465    -3.444230     2.765800
 C    -0.154260    -2.240518     2.251750
 C     0.665463    -1.273883     1.622758
 C     0.209859     0.000091    -0.842099
 C     0.778731     1.356635    -1.321012
 C    -0.059940     2.471593    -1.062020
 C     0.270458     3.788926    -1.395769
 C     0.269717    -3.788732    -1.396115
 C    -0.060504    -2.471326    -1.062403
 C     0.778432    -1.356538    -1.321158
 H    -1.927984    -0.000839     3.272304
 H    -4.382591    -0.000880     3.035288
 H    -1.230054     2.065409     2.318720
 H    -0.343625     4.153183     3.240249
 H     2.112582     4.693714     3.015309
 H     3.612517     3.030543     1.913559
 H     3.986200     1.175323     0.633080
 H     3.986565    -1.174367     0.633025
 H     3.613417    -3.029792     1.913375
 H     2.113981    -4.693526     3.014880
 H    -0.342494    -4.153914     3.239505
 H    -1.229524    -2.066389     2.318067
 H    -1.018579     2.302514    -0.567246
 H    -0.424893     4.599051    -1.150295
 H    -1.019222    -2.302096    -0.567828
 H     1.772341    -5.075489    -2.314624
 C     1.488277     4.054515    -2.036917
 C     2.333740     2.983474    -2.314700
 C     2.018617     1.634698    -1.977419
 C     3.039497     0.678220    -2.376568
 C     3.039456    -0.678497    -2.376415
 C     2.018415    -1.634822    -1.977311
 C     2.333393    -2.983648    -2.314478
 C     1.487650    -4.054546    -2.036914
 H    -1.271974     0.000647    -3.415783
 H     1.773033     5.075422    -2.314717
 H     3.287935     3.168546    -2.823070
 H     3.946842     1.148671    -2.779655
 H     3.946800    -1.149078    -2.779345
 H     3.287680    -3.168914    -2.822612
