   68
scf done: -1616.006979
 C     1.541250     0.000317     1.130206
 C     2.417339     0.000059     2.232851
 C     3.848699     0.000249     2.076769
 C     4.431211     0.000883     0.801249
 C     3.526455     0.001429    -0.286960
 C     4.178561     0.001174    -1.543260
 C     3.345396     0.000781    -2.672083
 C     1.913362     0.000557    -2.528829
 C     1.306771     0.000625    -1.266855
 C     2.151434     0.000992    -0.140096
 C     5.766444     0.000439     0.169684
 C     5.617083     0.000614    -1.207208
 C     0.003646     0.000091     1.001031
 C    -0.604145     1.275662     1.626703
 C     0.223965     2.244136     2.241895
 C    -0.269099     3.450247     2.756690
 C    -1.633584     3.753229     2.644897
 C    -2.475210     2.821736     2.037295
 C    -2.001511     1.574360     1.553876
 C    -3.019484     0.679584     1.021028
 C    -3.019605    -0.679051     1.021356
 C    -2.001697    -1.573759     1.554413
 C    -2.475486    -2.820984     2.038161
 C    -1.633937    -3.752409     2.645967
 C    -0.269426    -3.449525     2.757625
 C     0.223737    -2.243622     2.242453
 C    -0.604279    -1.275203     1.627065
 C    -0.175277    -0.000113    -0.846984
 C    -0.747109     1.356264    -1.320375
 C     0.096477     2.470684    -1.074664
 C    -0.237132     3.787581    -1.407591
 C    -1.463869     4.052619    -2.031411
 C    -2.314666     2.981887    -2.294551
 C    -1.995964     1.633483    -1.960115
 C    -3.022411     0.676705    -2.343642
 C    -3.021828    -0.680072    -2.343329
 C    -1.994514    -1.635788    -1.959453
 C    -2.312075    -2.984584    -2.293320
 C    -1.460205    -4.054441    -2.030120
 C    -0.233532    -3.788063    -1.406755
 C     0.098916    -2.470769    -1.074260
 C    -0.745785    -1.357176    -1.320058
 H     2.017481    -0.000287     3.253453
 H     4.461843    -0.000181     2.986521
 H     3.760472     0.000565    -3.687576
 H     1.298385     0.000259    -3.435609
 H     6.721640     0.000003     0.700970
 H     1.299936     2.070277     2.297754
 H     0.424782     4.161529     3.218997
 H    -2.034114     4.700905     3.021702
 H    -3.547228     3.034013     1.944665
 H    -3.936903     1.174640     0.676970
 H    -3.937145    -1.174069     0.677576
 H    -3.547533    -3.033152     1.945640
 H    -2.034508    -4.700013     3.022919
 H     0.424373    -4.160739     3.220159
 H     1.299729    -2.069916     2.298113
 H     1.061687     2.303524    -0.591972
 H     0.462793     4.597313    -1.174549
 H    -1.751648     5.073130    -2.307281
 H    -3.276015     3.167183    -2.789042
 H    -3.935450     1.146764    -2.733917
 H    -3.934533    -1.151094    -2.733205
 H    -3.273393    -3.170936    -2.787463
 H    -1.747160    -5.075314    -2.305534
 H     0.467254    -4.597062    -1.173781
 H     1.064075    -2.302608    -0.591791
 H     6.437695     0.000315    -1.929481
