   66
scf done: -2159.004389
Cl    -1.994157     3.096380    -0.808560
Cl    -1.994309    -3.096156     0.808831
 C    -0.728884    -0.684991     0.208466
 C     0.801496    -0.740373     0.423157
 C     0.801537     0.740349    -0.423122
 C    -0.728839     0.685113    -0.208342
 C    -1.915188     1.382188    -0.367126
 C    -3.173159     0.704755    -0.170311
 C    -4.428212     1.365001    -0.322293
 C    -5.628401     0.689415    -0.161294
 C    -5.628438    -0.689084     0.161236
 C    -4.428286    -1.364720     0.322297
 C    -3.173198    -0.704534     0.170353
 C    -1.915263    -1.382018     0.367217
 C     1.607389    -1.894533    -0.186367
 C     0.981497    -3.011680    -0.780581
 C     1.721430    -4.088555    -1.296530
 C     3.121899    -4.080378    -1.238865
 C     3.768984    -2.971951    -0.671434
 C     3.023013    -1.898984    -0.159115
 C     1.054813    -0.680199     2.046734
 C     0.144094     0.351521     2.762309
 C     0.706382    -2.069017     2.645696
 C     2.513723    -0.391747     2.490145
 C     1.607633     1.894420     0.186308
 C     0.981930     3.011667     0.780539
 C     1.722038     4.088459     1.296405
 C     3.122502     4.080103     1.238629
 C     3.769402     2.971582     0.671174
 C     3.023255     1.898695     0.158939
 C     1.054664     0.680130    -2.046721
 C     0.143610    -0.351402    -2.762146
 C     0.706469     2.069029    -2.645632
 C     2.513451     0.391334    -2.490339
 H    -4.432082     2.427356    -0.577265
 H    -6.575211     1.225926    -0.286265
 H    -6.575277    -1.225553     0.286169
 H    -4.432215    -2.427071     0.577284
 H    -0.107018    -3.046795    -0.845891
 H     1.191464    -4.935916    -1.746365
 H     3.702171    -4.920015    -1.637294
 H     4.863665    -2.932455    -0.631682
 H     3.561225    -1.041924     0.251189
 H    -0.927148     0.178782     2.567694
 H     0.298399     0.248909     3.852352
 H     0.387623     1.390981     2.495350
 H     1.264840    -2.886316     2.159088
 H     0.978466    -2.067692     3.717576
 H    -0.367350    -2.296790     2.580494
 H     2.936996     0.522798     2.050854
 H     2.510120    -0.254784     3.587422
 H     3.185745    -1.240025     2.282652
 H    -0.106576     3.046923     0.845928
 H     1.192215     4.935898     1.746261
 H     3.702915     4.919668     1.637004
 H     4.864073     2.931962     0.631307
 H     3.561327     1.041565    -0.251404
 H     0.386907    -1.390909    -2.495142
 H    -0.927571    -0.178400    -2.567438
 H     0.297837    -0.248891    -3.852208
 H    -0.367147     2.297204    -2.579974
 H     1.265440     2.886161    -2.159334
 H     0.978086     2.067523    -3.717630
 H     2.509674     0.254528    -3.587633
 H     3.185755     1.239379    -2.282815
 H     2.936505    -0.523394    -2.051226
