   62
scf done: -1981.864869
 I     3.570064     1.569483    -0.222900
 I    -3.569454     1.570533     0.223852
 C     0.855048    -1.044711    -0.180542
 C    -0.855308    -1.044487     0.180476
 C    -0.702340     0.477559     0.099123
 C    -1.431654     1.647704     0.122549
 C    -0.730068     2.904333     0.048490
 C    -1.398979     4.162669     0.087439
 C    -0.705961     5.362808     0.043298
 C     0.707599     5.362608    -0.043436
 C     1.400284     4.162268    -0.087355
 C     0.731014     2.904128    -0.048206
 C     1.432249     1.647299    -0.122077
 C     0.702632     0.477353    -0.098487
 C     1.130489    -1.592637    -1.578288
 C     1.683081    -0.795911    -2.600426
 C     1.946356    -1.328869    -3.873815
 C     1.657270    -2.672094    -4.153373
 C     1.092514    -3.476568    -3.149577
 C     0.828899    -2.940594    -1.881575
 C     1.795318    -1.608777     0.894766
 C     1.856548    -0.988815     2.165906
 C     2.717343    -1.459630     3.165769
 C     3.551084    -2.563134     2.921394
 C     3.513379    -3.181493     1.663537
 C     2.649464    -2.708351     0.662013
 C    -1.795642    -1.607806    -0.895166
 C    -1.856232    -0.987606    -2.166240
 C    -2.717021    -1.457843    -3.166356
 C    -3.551404    -2.560970    -2.922347
 C    -3.514263    -3.179578    -1.664622
 C    -2.650302    -2.707025    -0.662824
 C    -1.131145    -1.592966     1.577916
 C    -0.830178    -2.941172     1.880667
 C    -1.094334    -3.477611     3.148354
 C    -1.659023    -2.673363     4.152379
 C    -1.947526    -1.329906     3.873350
 C    -1.683721    -0.796482     2.600263
 H    -2.491265     4.164518     0.160889
 H    -1.255516     6.309684     0.077477
 H     1.257418     6.309325    -0.077783
 H     2.492569     4.163795    -0.160786
 H     1.911836     0.255660    -2.404905
 H     2.378845    -0.684555    -4.647697
 H     1.861218    -3.088305    -5.146259
 H     0.844874    -4.523935    -3.355894
 H     0.365783    -3.575310    -1.118404
 H     1.218600    -0.125539     2.378550
 H     2.737260    -0.957332     4.139460
 H     4.227932    -2.930377     3.701047
 H     4.167289    -4.034513     1.448328
 H     2.659290    -3.192769    -0.317863
 H    -1.217749    -0.124667    -2.378619
 H    -2.736473    -0.955420    -4.139986
 H    -4.228260    -2.927698    -3.702242
 H    -4.168586    -4.032339    -1.449685
 H    -2.660480    -3.191714     0.316921
 H    -0.367117    -3.575737     1.117335
 H    -0.847180    -4.525172     3.354263
 H    -1.863391    -3.089952     5.145018
 H    -2.379972    -0.685767     4.647403
 H    -1.912083     0.255252     2.405123
