   62
scf done: -6534.442923
Br     1.777845     3.334276    -0.377004
Br     1.777344    -3.334084     0.377963
 C    -0.867567     0.849670    -0.206008
 C    -0.867579    -0.849538     0.205887
 C     0.654152    -0.696386     0.127405
 C     1.825718    -1.421955     0.184895
 C     3.081834    -0.725807     0.081127
 C     4.337335    -1.396875     0.149933
 C     5.536344    -0.704777     0.075002
 C     5.536412     0.704485    -0.074231
 C     4.337468     1.396695    -0.149292
 C     3.081903     0.725764    -0.080568
 C     1.825871     1.422048    -0.184305
 C     0.654161     0.696721    -0.126734
 C    -1.423821     1.092307    -1.606431
 C    -2.767158     0.764072    -1.901721
 C    -3.310263     1.000692    -3.171962
 C    -2.517791     1.565728    -4.185040
 C    -1.180161     1.884927    -3.911401
 C    -0.640034     1.649133    -2.635914
 C    -1.423431     1.819487     0.847210
 C    -0.790101     1.921846     2.108442
 C    -1.258810     2.805266     3.089069
 C    -2.373383     3.620579     2.834244
 C    -3.004069     3.543304     1.584471
 C    -2.532564     2.657445     0.601895
 C    -1.422764    -1.819411    -0.847641
 C    -0.788997    -1.921405    -2.108690
 C    -1.257157    -2.804862    -3.089531
 C    -2.371522    -3.620633    -2.835123
 C    -3.002557    -3.543746    -1.585516
 C    -2.531648    -2.657790    -0.602738
 C    -1.424421    -1.092320     1.606017
 C    -0.640852    -1.648853     2.635819
 C    -1.181422    -1.884830     3.911100
 C    -2.519262    -1.566090     4.184166
 C    -3.311525    -1.001270     3.170784
 C    -2.767989    -0.764508     1.900759
 H     4.336558    -2.484056     0.269852
 H     6.484166    -1.250865     0.133042
 H     6.484264     1.250480    -0.132064
 H     4.336844     2.483854    -0.269462
 H    -3.392021     0.300462    -1.130911
 H    -4.353526     0.731759    -3.372508
 H    -2.939244     1.748180    -5.179939
 H    -0.546466     2.321575    -4.691778
 H     0.404879     1.906547    -2.442692
 H     0.081874     1.298161     2.327938
 H    -0.745636     2.858337     4.055877
 H    -2.739245     4.314852     3.599199
 H    -3.864992     4.183848     1.360481
 H    -3.026270     2.635933    -0.373195
 H     0.082902    -1.297507    -2.327846
 H    -0.743816    -2.857485    -4.056281
 H    -2.736898    -4.314906    -3.600277
 H    -3.863223    -4.184707    -1.361764
 H    -3.025654    -2.636466     0.372212
 H     0.404308    -1.905688     2.443027
 H    -0.547906    -2.321295     4.691719
 H    -2.941027    -1.748591     5.178935
 H    -4.354942    -0.732721     3.370922
 H    -3.392684    -0.301097     1.129693
