   23
scf done:  -739.952166
 C     7.889445     5.704300     9.893950
 C     8.078072     6.996587    10.381800
 C     7.051410     7.943580    10.240441
 C     5.852986     7.566401     9.608423
 C     5.709608     6.265227     9.137152
 N     6.720157     5.357906     9.284111
 C     6.528930     3.978102     8.767625
 C     7.569822     2.830719     8.851714
 C     5.415370     2.983864     9.218984
 C     6.243929     3.593612     7.283312
 C     6.291917     2.278249     8.130675
 I     6.026938     0.294370     7.392365
 H     8.642407     4.917096     9.968383
 H     9.025210     7.247770    10.866540
 H     7.181393     8.962657    10.617154
 H     5.029050     8.273041     9.478172
 H     4.808936     5.902170     8.637247
 H     7.776900     2.410202     9.849160
 H     8.471974     2.921640     8.225265
 H     4.379821     3.221144     8.926075
 H     5.491182     2.587767    10.243853
 H     7.065499     3.746361     6.565903
 H     5.258845     3.868136     6.872596
