   28
scf done:  -442.759362
 C    -0.795283     0.993988    -0.057856
 N    -2.054013     1.591456    -0.079403
 B    -0.440131     0.024362     1.322456
 C    -0.829532    -0.950950    -0.044704
 N    -2.108051    -1.504188    -0.058565
 B     0.488109    -1.458439     0.870586
 B     1.345722    -0.006260     1.428699
 B     1.943489    -0.912836    -0.006456
 B     1.974475     0.859836    -0.018383
 B     0.539212     1.467503     0.850822
 B     0.563961     1.455260    -0.935879
 B    -0.401912     0.005285    -1.413905
 B     0.512761    -1.471062    -0.916122
 B     1.385927    -0.026512    -1.470011
 H     1.979306    -0.043967    -2.510525
 H     0.323351    -2.453153     1.516977
 H     0.365618    -2.475122    -1.552203
 H    -1.230731     0.044613     2.220764
 H    -1.166868     0.012334    -2.334363
 H     2.995101     1.486971    -0.008221
 H     0.452038     2.455016    -1.585761
 H     0.409533     2.476094     1.483572
 H     2.941505    -1.575172     0.012747
 H     1.909355    -0.009126     2.485745
 H    -2.334130    -2.024091    -0.908145
 H    -2.357722    -2.012044     0.791693
 H    -2.283853     2.120515     0.763569
 H    -2.260543     2.108437    -0.935800
