   55
scf done: -1021.530879
 B    -2.293605    -0.032450    -1.469127
 H    -1.532735    -0.113998    -2.384689
 B    -3.075998     1.456112    -0.948131
 H    -2.909398     2.448227    -1.593801
 B    -2.968752     1.546103     0.845508
 H    -2.779548     2.598881     1.379522
 B    -2.165553     0.099162     1.485165
 H    -1.324244     0.122009     2.328718
 B    -3.063106    -1.344762     1.023984
 H    -2.913421    -2.348961     1.656204
 B    -3.125238    -1.429068    -0.776194
 H    -3.025669    -2.487436    -1.323962
 B    -4.038864     0.007128    -1.371395
 H    -4.685843    -0.044887    -2.378059
 B    -3.903751     0.165123     1.527523
 H    -4.465306     0.251740     2.581957
 B    -4.519969    -0.803521     0.149838
 H    -5.539280    -1.427229     0.229515
 B    -4.477116     0.996247     0.048380
 H    -5.463143     1.675636     0.067025
 N    -0.328424     1.192615    -0.187645
 N    -0.379681    -1.204836     0.057462
 C    -1.710147     0.834741    -0.071700
 C    -1.755211    -0.795227     0.047168
 C     0.429572    -0.047879    -0.448056
 H     1.403970    -0.007752     0.065463
 H     0.613273    -0.168673    -1.537951
 C    -0.063251    -2.480091    -0.606022
 H    -0.181800    -2.404144    -1.711837
 H    -0.803823    -3.220291    -0.252085
 C     1.345299    -2.946162    -0.269380
 C     1.786595    -2.980801     1.069604
 H     1.112631    -2.634609     1.861443
 C     3.073621    -3.441662     1.381964
 H     3.404978    -3.463683     2.426401
 C     3.935736    -3.877400     0.360464
 H     4.941102    -4.237730     0.605455
 C     3.504320    -3.844976    -0.974592
 H     4.171927    -4.177255    -1.777460
 C     2.217007    -3.377071    -1.286511
 H     1.884421    -3.346831    -2.331573
 C     0.236689     2.094208     0.837986
 H     0.411194     1.568693     1.801319
 H    -0.527370     2.868357     1.029574
 C     1.525495     2.748610     0.365557
 C     2.631278     2.836387     1.232204
 H     2.568544     2.393239     2.234068
 C     3.808365     3.487662     0.827758
 H     4.660413     3.547933     1.514159
 C     3.893768     4.050685    -0.454871
 H     4.812177     4.555548    -0.774642
 C     2.796963     3.959494    -1.329737
 H     2.858249     4.395123    -2.333521
 C     1.620475     3.314112    -0.922527
 H     0.765761     3.235489    -1.603571
