   72
scf done: -1219.327635
 N     1.677067     0.551456     0.240298
 N    -1.631203     0.536011     0.189058
 C     4.256334    -3.081578     0.432138
 H     4.019273    -4.099384     0.768779
 C     3.212962    -2.258230    -0.026994
 C    -3.500266    -0.916790    -0.522820
 C     3.507030    -0.938696    -0.459298
 C     1.052231     1.787336     0.196569
 C     2.380318    -0.034207    -0.928603
 H     2.770395     0.776978    -1.567529
 H     1.653168    -0.603593    -1.536602
 C     5.589640    -2.635787     0.472530
 B    -1.446268     3.125255    -0.678914
 C    -1.021548     1.773097     0.193902
 B     0.042948     2.176833    -1.134494
 C    -5.778311    -1.187696     0.304930
 H    -6.731775    -0.736962     0.610160
 C     4.843183    -0.462147    -0.411040
 C    -3.335861    -2.324903    -0.492300
 C     5.857568    -1.321688     0.050918
 H     6.889335    -0.948731     0.087023
 C    -2.362483    -0.016597    -0.975467
 H    -1.659613    -0.570558    -1.622781
 H    -2.753483     0.826119    -1.573147
 B     1.497967     3.158541    -0.656463
 B    -0.005474     2.127086     1.537378
 C    -4.738470    -0.343582    -0.120802
 B     0.024883     3.972315    -1.203087
 C    -4.405344    -3.132569    -0.059213
 H    -4.270763    -4.221828    -0.039588
 C    -5.634450    -2.587218     0.345613
 B    -1.468665     3.108570     1.113071
 B     1.471654     3.105863     1.132682
 C     6.704489    -3.549277     0.937261
 H     7.083653    -4.172960     0.104688
 H     6.361672    -4.239078     1.728537
 H     7.561154    -2.975062     1.330857
 C     1.794930    -2.796158    -0.059410
 H     1.717288    -3.736772     0.511531
 H     1.467360    -3.012635    -1.095048
 H     1.073208    -2.074670     0.364251
 B    -0.876871     4.546325     0.246718
 C    -2.044969    -2.990500    -0.931973
 H    -2.067949    -4.070218    -0.707258
 H    -1.160940    -2.562168    -0.427178
 H    -1.877925    -2.886442    -2.021362
 B     0.889617     4.556118     0.267419
 C    -4.969571     1.154038    -0.162248
 H    -5.961044     1.408518     0.248290
 H    -4.930458     1.545482    -1.196689
 H    -4.212002     1.712878     0.415989
 B    -0.006341     3.916533     1.691820
 C    -6.770123    -3.470680     0.818060
 H    -6.985765    -3.310279     1.891349
 H    -6.534644    -4.539891     0.680994
 H    -7.704587    -3.256110     0.267703
 C     5.207645     0.945299    -0.845158
 H     6.272376     1.151010    -0.643884
 H     4.613258     1.713810    -0.318415
 H     5.042598     1.099403    -1.928479
 H     0.045211     1.447462    -2.082618
 H    -2.471308     2.975602     1.755653
 H    -0.003265     1.337811     2.439935
 H     1.525006     5.571940     0.296884
 H    -2.426629     3.045513    -1.361935
 H     2.459333     2.976369     1.799139
 H    -1.524943     5.554554     0.251390
 H     0.022176     4.571158    -2.241118
 H     2.498390     3.079562    -1.310630
 H    -0.012707     4.465829     2.756961
 H     2.115710     0.338307     1.138250
 H    -1.908674     0.170766     1.100183
