   54
scf done:  -983.447269
 B    -1.171689     2.005905     0.000000
 B    -0.779426     2.996829     1.472150
 B     1.008711     3.106905     1.468162
 B     1.507568     2.171075     0.000000
 B    -1.381477     3.786735     0.000000
 B     0.029361     4.479472     0.883389
 B     1.508445     3.968918     0.000000
 C     0.193417     1.714005     1.024409
 N     0.322563     0.471043     1.631804
 C    -0.747500    -0.074539     2.486059
 H    -1.663458    -0.140387     1.869424
 H    -0.979811     0.606422     3.330875
 C    -0.363431    -1.441841     3.023848
 C    -0.614199    -1.768071     4.370691
 H    -1.068232    -1.019708     5.031908
 C    -0.287403    -3.037957     4.872324
 H    -0.488688    -3.275769     5.922834
 C     0.307535    -3.994232     4.034084
 H     0.570011    -4.983138     4.426089
 C     0.569795    -3.674611     2.691288
 H     1.035938    -4.415371     2.031736
 C     0.233861    -2.408389     2.189633
 H     0.439172    -2.152606     1.144053
 H    -2.058622     1.202929     0.000000
 H     2.524867     4.603300     0.000000
 H    -1.435270     2.852808     2.463165
 H     2.468120     1.454086    -0.000000
 H    -2.464801     4.298194     0.000000
 H     1.671381     3.022002     2.462655
 H    -0.036632     5.488263     1.526751
 H     1.260067     0.307139     2.008550
 B    -0.779426     2.996829    -1.472150
 B     1.008711     3.106905    -1.468162
 B     0.029361     4.479472    -0.883389
 C     0.193417     1.714005    -1.024409
 N     0.322563     0.471043    -1.631804
 C    -0.747500    -0.074539    -2.486059
 H    -1.663458    -0.140387    -1.869424
 H    -0.979811     0.606422    -3.330875
 C    -0.363431    -1.441841    -3.023848
 C    -0.614199    -1.768071    -4.370691
 H    -1.068232    -1.019708    -5.031908
 C    -0.287403    -3.037957    -4.872324
 H    -0.488688    -3.275769    -5.922834
 C     0.307535    -3.994232    -4.034084
 H     0.570011    -4.983138    -4.426089
 C     0.569795    -3.674611    -2.691288
 H     1.035938    -4.415371    -2.031736
 C     0.233861    -2.408389    -2.189633
 H     0.439172    -2.152606    -1.144053
 H    -1.435270     2.852808    -2.463165
 H     1.671381     3.022002    -2.462655
 H    -0.036632     5.488263    -1.526751
 H     1.260067     0.307139    -2.008550
