   50
scf done:  -981.030172
 B     5.738753     3.503894     3.605749
 B     4.196453     4.413072     3.613751
 B     3.582735     4.412993     5.288802
 B     5.746151     5.284197     3.585668
 B     4.407933     5.851255     4.641240
 C     4.418761     3.064532     4.645131
 C     2.674981     1.655286     4.005722
 H     2.043606     2.535302     3.773530
 N     3.883778     1.778667     4.449402
 C     2.058270     0.342888     3.779996
 C     0.732989     0.283535     3.293861
 H     0.190170     1.215614     3.094349
 C     0.115705    -0.954431     3.067944
 H    -0.912006    -0.992891     2.690963
 C     0.818305    -2.142934     3.326157
 H     0.337472    -3.111726     3.150213
 C     2.140018    -2.091941     3.810950
 H     2.684622    -3.021376     4.011057
 C     2.758708    -0.859214     4.037401
 H     3.784456    -0.794054     4.413636
 H     2.419610     4.251017     5.520385
 H     6.047591     2.719750     2.763058
 H     3.458264     4.251228     2.685532
 H     6.106642     5.864901     2.601968
 H     3.797186     6.857198     4.417546
 B     4.754760     3.503892     6.291431
 B     6.297058     4.413074     6.283430
 B     6.910776     4.412996     4.608379
 B     4.747359     5.284195     6.311513
 B     6.085575     5.851256     5.255941
 C     6.074752     3.064533     5.252050
 C     7.818533     1.655290     5.891459
 H     8.449906     2.535306     6.123657
 N     6.609737     1.778669     5.447777
 C     8.435243     0.342892     6.117192
 C     9.760522     0.283542     6.603335
 H    10.303340     1.215622     6.802848
 C    10.377806    -0.954424     6.829259
 H    11.405515    -0.992882     7.206245
 C     9.675208    -2.142928     6.571045
 H    10.156040    -3.111719     6.746994
 C     8.353497    -2.091937     6.086245
 H     7.808895    -3.021372     5.886137
 C     7.734808    -0.859210     5.859787
 H     6.709062    -0.794052     5.483546
 H     8.073901     4.251020     4.376795
 H     4.445922     2.719748     7.134122
 H     7.035247     4.251229     7.211649
 H     4.386866     5.864899     7.295213
 H     6.696321     6.857200     5.479635
