   68
scf done: -1614.387861
 C     1.515037     0.000198     1.111182
 C     2.367765     0.000380     2.200366
 C     3.783672     0.000451     2.051105
 C     4.362319     0.000324     0.800797
 C     3.478461     0.000159    -0.275527
 C     4.118028     0.000049    -1.514036
 C     3.299153    -0.000104    -2.621798
 C     1.881303    -0.000145    -2.482027
 C     1.291816    -0.000041    -1.240922
 C     2.126639     0.000106    -0.133963
 C     5.688137     0.000299     0.174275
 C     5.544759     0.000127    -1.174485
 C    -0.005681     0.000041     0.936128
 C    -0.618112     1.248558     1.584154
 C     0.178061     2.180326     2.245685
 C    -0.329416     3.348809     2.778485
 C    -1.672124     3.643067     2.644128
 C    -2.479928     2.741269     1.990950
 C    -1.987711     1.538705     1.484722
 C    -2.967341     0.665227     0.871305
 C    -2.967193    -0.665834     0.871309
 C    -1.987372    -1.539053     1.484770
 C    -2.479298    -2.741724     1.991031
 C    -1.671298    -3.643259     2.644328
 C    -0.328685    -3.348608     2.778794
 C     0.178511    -2.180024     2.245947
 C    -0.617859    -1.248537     1.584262
 C    -0.164079    -0.000012    -0.783538
 C    -0.721919     1.342755    -1.274867
 C     0.097262     2.438254    -0.987125
 C    -0.222312     3.737594    -1.311512
 C    -1.404305     3.999915    -1.977195
 C    -2.220325     2.942499    -2.292659
 C    -1.912786     1.614622    -1.963064
 C    -2.911749     0.664530    -2.405019
 C    -2.911672    -0.664730    -2.405065
 C    -1.912668    -1.614757    -1.963055
 C    -2.220109    -2.942658    -2.292670
 C    -1.404045    -4.000024    -1.977168
 C    -0.222096    -3.737622    -1.311427
 C     0.097383    -2.438268    -0.987026
 C    -0.721862    -1.342820    -1.274785
 H     1.971949     0.000478     3.205449
 H     4.382499     0.000577     2.950513
 H     3.707216    -0.000203    -3.622283
 H     1.276689    -0.000246    -3.376204
 H     6.629000     0.000401     0.698336
 H     1.237610     2.017243     2.320833
 H     0.336751     4.037344     3.275722
 H    -2.081807     4.560754     3.037135
 H    -3.533214     2.949885     1.873954
 H    -3.828132     1.162842     0.447544
 H    -3.827873    -1.163643     0.447554
 H    -3.532522    -2.950627     1.873976
 H    -2.080751    -4.561048     3.037335
 H     0.337630    -4.036914     3.276148
 H     1.238008    -2.016641     2.321165
 H     1.028342     2.270820    -0.473300
 H     0.452041     4.535234    -1.041606
 H    -1.681999     5.006910    -2.247632
 H    -3.142797     3.127764    -2.822962
 H    -3.789835     1.130045    -2.831036
 H    -3.789700    -1.130310    -2.831129
 H    -3.142540    -3.127971    -2.823027
 H    -1.681653    -5.007037    -2.247634
 H     0.452299    -4.535215    -1.041491
 H     1.028443    -2.270776    -0.473188
 H     6.356162     0.000077    -1.882912
