   70
scf done: -1615.622249
 H    -6.050485    -0.871942    -1.669841
 C    -4.303935    -0.000032     0.856190
 C    -3.455617     0.000050    -0.244447
 C    -4.080691     0.000084    -1.488569
 C    -3.272157     0.000019    -2.596204
 C    -5.716553    -0.000359     0.324283
 C    -5.568683     0.000405    -1.231099
 H    -3.688765     0.000021    -3.592932
 H    -6.270373    -0.873663     0.665299
 H    -6.271409     0.871924     0.666183
 H    -6.049641     0.873763    -1.668777
 H    -0.411543    -4.536355    -1.019915
 C    -1.463379    -0.000006     1.124942
 C    -2.296065    -0.000019     2.224166
 C    -3.713571    -0.000053     2.094770
 C    -1.854234    -0.000032    -2.461487
 C    -1.262977    -0.000006    -1.225188
 C    -2.088097     0.000024    -0.113858
 C     0.056359    -0.000014     0.936802
 C     0.677077     1.247172     1.580820
 C    -0.110679     2.177511     2.254371
 C     0.403021     3.344448     2.784654
 C     1.744032     3.639373     2.635465
 C     2.543980     2.739089     1.970663
 C     2.045669     1.537792     1.467389
 C     3.018550     0.665501     0.841582
 C     3.018551    -0.665499     0.841580
 C     2.045676    -1.537799     1.467393
 C     2.543994    -2.739100     1.970668
 C     1.744035    -3.639414     2.635397
 C     0.402999    -3.344524     2.784528
 C    -0.110696    -2.177585     2.254273
 C     0.677085    -1.247206     1.580787
 C     0.198518    -0.000004    -0.781745
 C     0.753905     1.342274    -1.277056
 C    -0.059960     2.438496    -0.977051
 C     0.257739     3.738235    -1.300899
 C     0.257781    -3.738220    -1.300926
 C    -0.059909    -2.438514    -0.977009
 C     0.753927    -1.342265    -1.277064
 H    -1.884117    -0.000018     3.223141
 H    -4.304648    -0.000114     2.999018
 H    -1.169285     2.013883     2.340137
 H    -0.257258     4.031552     3.291789
 H     2.158327     4.556126     3.025917
 H     3.595861     2.947925     1.841709
 H     3.873979     1.163641     0.407649
 H     3.873981    -1.163637     0.407638
 H     3.595887    -2.947895     1.841759
 H     2.158306    -4.556179     3.025846
 H    -0.257276    -4.031691     3.291584
 H    -1.169305    -2.013955     2.339999
 H    -0.984919     2.269061    -0.453049
 H    -0.411635     4.536332    -1.019892
 H    -0.984810    -2.269084    -0.452904
 H     1.707897    -5.008419    -2.251379
 C     1.431985     4.001037    -1.980407
 C     2.242061     2.943320    -2.309126
 C     1.936573     1.614885    -1.978840
 C     2.928772     0.664679    -2.435583
 C     2.928770    -0.664616    -2.435602
 C     1.936550    -1.614839    -1.978912
 C     2.242025    -2.943267    -2.309288
 C     1.431982    -4.000989    -1.980561
 H    -1.250971    -0.000090    -3.357098
 H     1.707960     5.008465    -2.251160
 H     3.158045     3.128510    -2.850672
 H     3.800870     1.130085    -2.873977
 H     3.800865    -1.130023    -2.874004
 H     3.157989    -3.128421    -2.850877
