   66
scf done: -2157.490876
Cl    -1.964917     3.052082    -0.744682
Cl    -1.960912    -3.054532     0.750771
 C    -0.725205    -0.680276     0.195907
 C     0.786231    -0.712519     0.410468
 C     0.782715     0.714870    -0.413475
 C    -0.727162     0.678308    -0.194781
 C    -1.886782     1.372277    -0.336899
 C    -3.127037     0.690100    -0.152974
 C    -4.366163     1.346775    -0.292440
 C    -5.545715     0.678720    -0.147661
 C    -5.544449    -0.689043     0.145202
 C    -4.363746    -1.354838     0.291242
 C    -3.125590    -0.695888     0.153128
 C    -1.883960    -1.375746     0.338297
 C     1.603598    -1.851892    -0.166978
 C     1.010153    -2.967615    -0.742912
 C     1.760658    -4.025332    -1.228173
 C     3.139129    -3.996407    -1.154650
 C     3.753670    -2.887953    -0.600949
 C     2.996289    -1.836462    -0.119096
 C     1.008959    -0.640975     2.000918
 C     0.080940     0.357230     2.694141
 C     0.683011    -2.010944     2.595722
 C     2.430063    -0.324110     2.470845
 C     1.597737     1.856668     0.162806
 C     1.000849     2.960898     0.757413
 C     1.747114     4.019178     1.247892
 C     3.125012     4.002370     1.160992
 C     3.743176     2.905205     0.589195
 C     2.990094     1.852813     0.102604
 C     1.000145     0.641682    -2.004546
 C     0.094228    -0.380882    -2.691571
 C     0.638424     2.000339    -2.604401
 C     2.427503     0.359392    -2.477921
 H    -4.374609     2.397916    -0.522428
 H    -6.479197     1.207591    -0.261213
 H    -6.476960    -1.219856     0.257639
 H    -4.370793    -2.406024     0.520920
 H    -0.060156    -3.018776    -0.825839
 H     1.256442    -4.873025    -1.666734
 H     3.727301    -4.819988    -1.529192
 H     4.830510    -2.833616    -0.547040
 H     3.509785    -0.981168     0.282493
 H    -0.969516     0.159545     2.499813
 H     0.230884     0.266142     3.768930
 H     0.297188     1.385355     2.427340
 H     1.262969    -2.809149     2.139348
 H     0.924158    -1.992516     3.657797
 H    -0.368080    -2.258671     2.509653
 H     2.829231     0.598989     2.068925
 H     2.399827    -0.213875     3.553976
 H     3.120819    -1.135660     2.264615
 H    -0.069113     3.002509     0.850867
 H     1.240212     4.857627     1.700870
 H     3.710156     4.826071     1.539973
 H     4.819892     2.860085     0.525168
 H     3.507387     1.005410    -0.310536
 H     0.346043    -1.403508    -2.434653
 H    -0.959284    -0.217258    -2.482778
 H     0.226966    -0.277912    -3.767607
 H    -0.423437     2.207226    -2.545041
 H     1.176139     2.818800    -2.132262
 H     0.906374     1.993705    -3.660135
 H     2.392672     0.214237    -3.556698
 H     3.089436     1.201752    -2.302382
 H     2.862503    -0.535980    -2.051368
