   66
scf done: -1139.645552
 N     1.304279    -0.284140     0.799974
 C     2.582393    -0.731218     0.341519
 C     0.779063     0.959230     0.455682
 C     2.672467    -1.563619    -0.771585
 C     3.928449    -1.988794    -1.189509
 H     3.991333    -2.626400    -2.060699
 C     3.735349    -0.412189     1.072464
 C     4.960104    -0.875657     0.630007
 H     5.845654    -0.626169     1.197712
 C     5.083582    -1.647830    -0.516321
 C     1.475439    -2.066289    -1.512942
 H     0.557434    -1.825359    -0.990923
 H     1.538194    -3.146802    -1.629618
 H     1.424364    -1.638971    -2.514168
 B     0.696667     1.372659    -1.185384
 H     1.147191     0.617124    -1.969227
 B     0.785148     2.292229     1.484565
 H     1.306684     2.141255     2.533861
 C     6.427252    -2.097275    -0.995345
 H     7.053326    -2.426976    -0.168863
 H     6.952517    -1.283958    -1.495405
 H     6.342608    -2.917968    -1.703011
 C     3.676963     0.394849     2.330900
 H     3.423728     1.432928     2.131989
 H     4.639816     0.378016     2.833654
 H     2.937816     0.013427     3.034585
 B     1.684201     2.285337    -0.024924
 H     2.854830     2.136455    -0.067307
 B     0.732096     3.138352    -1.232207
 H     1.260683     3.704144    -2.127651
 B     0.755423     3.714118     0.448308
 H     1.311643     4.706656     0.776301
 H     1.142450    -0.485404     1.770983
 N    -1.304256    -0.284170    -0.800035
 C    -2.582344    -0.731311    -0.341584
 C    -0.779107     0.959208    -0.455691
 C    -2.672373    -1.563786     0.771468
 C    -3.928338    -1.988987     1.189412
 H    -3.991189    -2.626656     2.060558
 C    -3.735327    -0.412194    -1.072438
 C    -4.960069    -0.875688    -0.629964
 H    -5.845644    -0.626126    -1.197598
 C    -5.083500    -1.647960     0.516300
 C    -1.475313    -2.066481     1.512759
 H    -0.557325    -1.825495     0.990735
 H    -1.538041    -3.147004     1.629358
 H    -1.424218    -1.639234     2.514014
 B    -0.696736     1.372560     1.185394
 H    -1.147215     0.616959     1.969199
 B    -0.785272     2.292256    -1.484511
 H    -1.306800     2.141301    -2.533814
 C    -6.427151    -2.097407     0.995374
 H    -7.053432    -2.426646     0.168867
 H    -6.952193    -1.284226     1.495893
 H    -6.342505    -2.918421     1.702669
 C    -3.676990     0.395022    -2.330764
 H    -3.423727     1.433069    -2.131717
 H    -4.639868     0.378276    -2.833473
 H    -2.937884     0.013687    -3.034538
 B    -1.684324     2.285236     0.024976
 H    -2.854946     2.136281     0.067348
 B    -0.732270     3.138248     1.232302
 H    -1.260891     3.703964     2.127774
 B    -0.755632     3.714095    -0.448184
 H    -1.311911     4.706617    -0.776128
 H    -1.142431    -0.485373    -1.771058
