   62
scf done: -1980.285437
 I     3.502661     1.537216    -0.235730
 I    -3.503105     1.536051     0.236142
 C     0.816596    -1.028414    -0.175923
 C    -0.816321    -1.028694     0.175698
 C    -0.691154     0.477562     0.101969
 C    -1.417513     1.621415     0.130032
 C    -0.714832     2.859618     0.051019
 C    -1.379469     4.101960     0.092679
 C    -0.699162     5.281906     0.046260
 C     0.697587     5.282120    -0.045286
 C     1.378248     4.102387    -0.091831
 C     0.713999     2.859837    -0.050262
 C     1.417054     1.621869    -0.129501
 C     0.691045     0.477784    -0.101713
 C     1.099357    -1.572599    -1.556324
 C     1.640760    -0.791627    -2.564989
 C     1.887702    -1.319975    -3.822433
 C     1.592490    -2.640965    -4.094125
 C     1.040890    -3.430897    -3.098975
 C     0.795227    -2.899596    -1.849104
 C     1.759684    -1.578658     0.882598
 C     1.810481    -0.969702     2.135364
 C     2.664245    -1.423024     3.120004
 C     3.503224    -2.496869     2.874953
 C     3.478948    -3.099538     1.633094
 C     2.619903    -2.642721     0.646457
 C    -1.759352    -1.578702    -0.883004
 C    -1.810168    -0.969313    -2.135565
 C    -2.663991    -1.422261    -3.120323
 C    -3.503025    -2.496140    -2.875620
 C    -3.478735    -3.099221    -1.633976
 C    -2.619630    -2.642798    -0.647196
 C    -1.098810    -1.573428     1.555960
 C    -0.794439    -2.900493     1.848195
 C    -1.039705    -3.432258     3.097941
 C    -1.591152    -2.642747     4.093513
 C    -1.886611    -1.321706     3.822362
 C    -1.640038    -0.792878     2.565042
 H    -2.454445     4.107761     0.168703
 H    -1.239703     6.214875     0.082109
 H     1.237848     6.215251    -0.081066
 H     2.453217     4.108525    -0.167915
 H     1.867735     0.245580    -2.380462
 H     2.310459    -0.688714    -4.589117
 H     1.781883    -3.052477    -5.073662
 H     0.790124    -4.461250    -3.299633
 H     0.342752    -3.522421    -1.092572
 H     1.169147    -0.128994     2.347827
 H     2.674918    -0.932394     4.081153
 H     4.174221    -2.851827     3.642220
 H     4.138016    -3.927091     1.418180
 H     2.641354    -3.116411    -0.320440
 H    -1.168792    -0.128568    -2.347760
 H    -2.674678    -0.931307    -4.081307
 H    -4.174111    -2.850766    -3.642963
 H    -4.137826    -3.926823    -1.419322
 H    -2.641094    -3.116823     0.319534
 H    -0.342109    -3.523002     1.091317
 H    -0.788722    -4.462643     3.298171
 H    -1.780211    -3.054632     5.072957
 H    -2.309260    -0.690766     4.589369
 H    -1.867180     0.244370     2.380947
