   58
scf done: -1977.922329
 I     3.496473     1.659526    -0.260152
 I    -3.497724     1.657036     0.260785
 C     0.822624    -0.850473     0.066121
 C    -0.822087    -0.851066    -0.065996
 C    -0.697867     0.643234     0.054758
 C    -1.421683     1.782673     0.120534
 C    -0.714962     3.020455     0.066726
 C    -1.378355     4.261647     0.130096
 C    -0.698773     5.441682     0.066160
 C     0.694812     5.442180    -0.066041
 C     1.375240     4.262626    -0.129837
 C     0.712738     3.020966    -0.066352
 C     1.420335     1.783677    -0.120087
 C     0.697306     0.643740    -0.054269
 C     1.328859    -1.291350     1.418069
 C     1.183235    -0.684127     2.646665
 C     1.745752    -1.285519     3.763582
 C     2.451556    -2.471930     3.644261
 C     2.641181    -3.057195     2.403269
 C     2.090398    -2.450146     1.290503
 C     2.258736    -2.731082    -0.130615
 C     3.003387    -3.708694    -0.761747
 C     3.126792    -3.666855    -2.140108
 C     2.530928    -2.649314    -2.866278
 C     1.771120    -1.676382    -2.232973
 C     1.611851    -1.732666    -0.863752
 C    -1.610625    -1.734295     0.863471
 C    -1.769784    -1.678970     2.232747
 C    -2.528693    -2.652920     2.865569
 C    -3.123773    -3.670559     2.138896
 C    -3.000465    -3.711494     0.760499
 C    -2.256735    -2.732865     0.129858
 C    -2.088659    -2.451119    -1.291125
 C    -2.639035    -3.058128    -2.404131
 C    -2.449848    -2.472224    -3.644874
 C    -1.744905    -1.285231    -3.763680
 C    -1.182834    -0.683878    -2.646536
 C    -1.327978    -1.291722    -1.418171
 H    -2.451680     4.265682     0.230522
 H    -1.237591     6.374928     0.117479
 H     1.232953     6.375809    -0.117463
 H     2.448562     4.267416    -0.230259
 H     0.656403     0.254301     2.741480
 H     1.640539    -0.819375     4.731170
 H     2.881723    -2.928507     4.522516
 H     3.232420    -3.955483     2.308420
 H     3.499416    -4.479463    -0.191347
 H     3.709157    -4.419196    -2.649801
 H     2.660086    -2.608078    -3.936777
 H     1.328479    -0.885818    -2.813311
 H    -1.327762    -0.888412     2.813543
 H    -2.657734    -2.612382     3.936109
 H    -3.705412    -4.423703     2.648232
 H    -3.495864    -4.482361     0.189687
 H    -3.229635    -3.956869    -2.309598
 H    -2.879685    -2.928732    -4.523325
 H    -1.640029    -0.818604    -4.731072
 H    -0.656757     0.254995    -2.740988
