   54
scf done: -1306.245744
 C     0.000141     0.638968     0.832765
 C    -0.000143     0.638873    -0.832053
 C     0.000311    -1.888832     0.668530
 C    -0.000000    -1.889111    -0.669517
 C    -1.216527    -0.022782     1.436445
 C    -2.279093     0.632660     2.021226
 H    -2.293943     1.711484     2.059951
 C    -3.332168    -0.101050     2.551728
 H    -4.161129     0.412958     3.013874
 C    -3.326100    -1.480660     2.488268
 H    -4.149438    -2.043268     2.901165
 C    -2.265535    -2.149012     1.890920
 H    -2.260017    -3.226340     1.828152
 C    -1.218733    -1.422218     1.371308
 C     1.217132    -0.022634     1.436038
 C     2.279580     0.632953     2.020851
 H     2.294339     1.711788     2.059474
 C     3.332731    -0.100603     2.551429
 H     4.161518     0.413525     3.013750
 C     3.326906    -1.480208     2.487905
 H     4.150300    -2.042698     2.900852
 C     2.266499    -2.148709     1.890436
 H     2.261205    -3.226033     1.827540
 C     1.219584    -1.422080     1.370841
 C    -1.217116    -0.022543    -1.435511
 C    -2.279879     0.633406    -2.019460
 H    -2.294743     1.712260    -2.057268
 C    -3.332974    -0.099843    -2.550518
 H    -4.162116     0.414532    -3.011931
 C    -3.326837    -1.479516    -2.488423
 H    -4.150045    -2.041735    -2.902095
 C    -2.266268    -2.148387    -1.891703
 H    -2.260804    -3.225767    -1.829763
 C    -1.219470    -1.422051    -1.371474
 C     1.216650    -0.022448    -1.435929
 C     2.279169     0.633679    -2.020124
 H     2.293801     1.712540    -2.057967
 C     3.332302    -0.099387    -2.551342
 H     4.161273     0.415107    -3.012908
 C     3.326391    -1.479061    -2.489185
 H     4.149702    -2.041175    -2.902822
 C     2.265960    -2.148099    -1.892403
 H     2.260611    -3.225488    -1.830651
 C     1.219132    -1.421965    -1.371958
 C    -0.000004     2.135529     0.689431
 C    -0.000203     3.300927     1.425541
 H    -0.000182     3.313468     2.505089
 C    -0.000375     4.484328     0.695046
 H    -0.000452     5.429570     1.216618
 C    -0.000454     4.484237    -0.695020
 H    -0.000623     5.429384    -1.216763
 C    -0.000309     3.300673    -1.425229
 H    -0.000430     3.312877    -2.504772
 C    -0.000103     2.135467    -0.688779
