   74
scf done: -1243.584128
 C    -0.612125    -0.028879    -0.120923
 C    -0.954907    -1.524381    -0.411265
 C     1.022130     0.184617     0.174249
 C    -2.371055    -1.720063    -0.962207
 C     1.192522     1.311099     1.210423
 C    -1.679210     0.377186     0.991727
 C     1.811186     0.584259    -1.114930
 C    -1.732152     1.870923     1.340809
 C    -2.423807     0.576787    -1.851744
 C     2.730473    -1.716737    -1.535712
 C    -1.009270     0.863237    -1.339300
 C    -3.124100     0.122561     0.439220
 C    -1.553755    -0.505047     2.233220
 C     3.242096     1.048623    -0.781427
 C     3.322063    -0.566285     1.060166
 C    -0.952349     2.359198    -1.019480
 C    -3.377702    -1.334660     0.112556
 C     1.879531    -1.018364     0.719946
 C    -3.429410     0.975005    -0.781699
 C     4.040482    -0.115878    -0.209503
 C     2.619386     1.732686     1.500828
 C     1.927544    -0.562367    -2.119828
 C     4.135845    -1.240167    -1.220784
 C     2.078633    -2.193513    -0.245565
 C    -1.825280    -1.970162     1.902995
 C     3.364301     0.551084     2.079174
 C    -1.939347     2.720172     0.086066
 C     3.255749     2.199143     0.205693
 C    -2.585877    -0.885574    -2.206641
 C    -3.334700     2.449799    -0.447616
 C    -0.863126    -2.428977     0.822722
 C    -3.234370    -2.158057     1.375545
 H    -0.345581     0.655614    -2.174184
 H     2.767039    -2.538103    -2.252518
 H     2.594460     2.552607     2.220590
 H     2.895333     0.235763     3.013465
 H    -1.864809    -1.168254    -2.977003
 H     0.132431    -2.487857     1.233770
 H    -4.439584     0.739673    -1.127046
 H    -2.579455     1.189465    -2.743633
 H     0.947877    -0.910681    -2.440255
 H    -1.228059     2.909223    -1.922562
 H     4.636597    -0.889315    -2.125562
 H     4.732244    -2.062088    -0.820019
 H    -3.800328     0.413523     1.249554
 H    -2.595608     2.016010     1.995565
 H    -4.087987     2.713853     0.297041
 H     4.281899     2.532099     0.373498
 H     0.051092     2.689364    -0.774205
 H     1.335052     1.428988    -1.603191
 H     2.704606     3.053264    -0.193922
 H    -3.580533    -1.066743    -2.619181
 H    -0.284927    -1.890615    -1.182778
 H     2.427369    -0.190955    -3.017472
 H     1.454095    -1.366751     1.659962
 H     3.701217     1.369600    -1.720407
 H    -3.418014    -3.215295     1.174558
 H    -3.975162    -1.835954     2.110307
 H    -0.564981    -0.411195     2.681675
 H    -2.483096    -2.779258    -1.208115
 H     4.400085     0.808190     2.309843
 H     0.732938     1.002607     2.146930
 H    -1.680548    -2.573305     2.800494
 H    -3.530756     3.055474    -1.334752
 H     0.669009     2.196039     0.881175
 H     2.736653    -2.917914     0.240252
 H     1.167967    -2.731195    -0.467606
 H    -0.883894     2.208496     1.918767
 H    -1.835352     3.776193     0.339182
 H    -4.391207    -1.437328    -0.284242
 H     3.832877    -1.442642     1.466769
 H    -1.122895    -3.445317     0.516075
 H    -2.267885    -0.159269     2.985372
 H     5.043432     0.230367     0.053517
