   28
scf done:  -442.382469
 B     0.377037     6.672056     5.286411
 H     0.842810     6.112312     6.219228
 B    -1.969869     7.583196     3.924213
 H    -3.142418     7.591860     3.766376
 B    -1.177975     6.171936     4.615656
 H    -1.814673     5.227519     4.937054
 B    -0.956968     8.113925     2.585791
 H    -1.363072     8.439911     1.524218
 B     0.318341     5.880981     3.716592
 H     0.659401     4.803986     3.372987
 B     0.553693     8.413326     4.979462
 H     1.158697     9.130729     5.700585
 B     1.395252     7.247462     3.966909
 H     2.552542     7.071194     3.822776
 B     0.606751     8.637985     3.222946
 H     1.226941     9.423467     2.594221
 B    -1.029125     7.749482     5.402718
 H    -1.568252     7.968886     6.433370
 B    -0.897974     8.965768     4.110688
 H    -1.322040    10.067406     4.195883
 C     0.439974     7.108014     2.574278
 C    -1.095558     6.488403     2.970443
 N     0.971873     6.753688     1.334168
 N    -1.632677     5.650164     1.985519
 H    -1.862789     4.743911     2.356133
 H    -2.441666     6.055703     1.546763
 H     0.793154     7.461337     0.642233
 H     0.581688     5.877892     1.019676
