   50
scf done:  -980.097111
 B     5.736934     3.479360     3.610644
 B     4.212352     4.364262     3.632139
 B     3.606770     4.364237     5.285172
 B     5.741446     5.238038     3.598356
 B     4.415746     5.792377     4.644127
 C     4.465053     3.043676     4.662179
 C     2.741819     1.665321     4.031048
 H     2.126239     2.535496     3.805801
 N     3.924387     1.772947     4.464043
 C     2.122397     0.365131     3.804007
 C     0.819388     0.311115     3.326980
 H     0.283667     1.228821     3.131045
 C     0.208534    -0.909005     3.103121
 H    -0.803921    -0.946120     2.732464
 C     0.900551    -2.079539     3.356216
 H     0.426345    -3.033368     3.182452
 C     2.203085    -2.031423     3.833048
 H     2.738641    -2.947494     4.028897
 C     2.813507    -0.816122     4.056758
 H     3.824589    -0.753083     4.426897
 H     2.457099     4.192334     5.502173
 H     6.037139     2.689140     2.791392
 H     3.474914     4.192234     2.723866
 H     6.097250     5.813864     2.627418
 H     3.809343     6.784547     4.422013
 B     4.756577     3.479363     6.286540
 B     6.281159     4.364267     6.265043
 B     6.886741     4.364237     4.612010
 B     4.752064     5.238041     6.298824
 B     6.077764     5.792378     5.253051
 C     6.028458     3.043677     5.235007
 C     7.751692     1.665324     5.866143
 H     8.367272     2.535500     6.091388
 N     6.569124     1.772949     5.433147
 C     8.371115     0.365136     6.093186
 C     9.674125     0.311121     6.570212
 H    10.209845     1.228829     6.766145
 C    10.284980    -0.908997     6.794072
 H    11.297436    -0.946111     7.164729
 C     9.592964    -2.079532     6.540979
 H    10.067171    -3.033361     6.714745
 C     8.290430    -2.031418     6.064147
 H     7.754875    -2.947490     5.868300
 C     7.680007    -0.816119     5.840436
 H     6.668924    -0.753081     5.470298
 H     8.036411     4.192333     4.395010
 H     4.456372     2.689147     7.105795
 H     7.018596     4.192241     7.173317
 H     4.396259     5.813870     7.269759
 H     6.684166     6.784549     5.475162
