   72
scf done: -1218.196607
 N     1.517565     0.477481     0.247236
 N    -1.505242     0.481821     0.178947
 C     4.181495    -3.028427     0.395780
 H     3.988613    -4.043130     0.715651
 C     3.122176    -2.250059    -0.042441
 C    -3.382868    -0.890374    -0.525465
 C     3.358623    -0.936836    -0.453347
 C     0.908206     1.713570     0.200724
 C     2.210590    -0.079080    -0.905493
 H     2.571032     0.718679    -1.550518
 H     1.509297    -0.668863    -1.493414
 C     5.475988    -2.537987     0.437990
 B    -1.410290     3.071544    -0.664275
 C    -0.894354     1.717951     0.181178
 B     0.032315     2.158481    -1.171133
 C    -5.630785    -1.170997     0.273046
 H    -6.579575    -0.735586     0.554643
 C     4.654354    -0.417734    -0.399975
 C    -3.201166    -2.272150    -0.460420
 C     5.689114    -1.228181     0.041636
 H     6.689938    -0.821171     0.081433
 C    -2.262656     0.006278    -0.971097
 H    -1.596552    -0.525027    -1.646470
 H    -2.667071     0.849235    -1.527116
 B     1.462131     3.065664    -0.629687
 B    -0.014468     2.094884     1.576628
 C    -4.611599    -0.335679    -0.154815
 B     0.036136     3.928847    -1.181695
 C    -4.245539    -3.075859    -0.028600
 H    -4.097454    -4.145899     0.016956
 C    -5.467859    -2.545083     0.345662
 B    -1.435876     3.030658     1.089263
 B     1.435063     3.012115     1.123895
 C     6.613458    -3.402604     0.881631
 H     7.051187    -3.932733     0.035811
 H     6.287204    -4.150255     1.600698
 H     7.404034    -2.814151     1.341114
 C     1.739929    -2.825299    -0.064224
 H     1.706737    -3.775270     0.462307
 H     1.399846    -3.004841    -1.084582
 H     1.024452    -2.152086     0.402954
 B    -0.859561     4.472030     0.256981
 C    -1.904633    -2.906370    -0.860118
 H    -1.882552    -3.953691    -0.571097
 H    -1.057750    -2.411737    -0.392388
 H    -1.753943    -2.862153    -1.939045
 B     0.896735     4.464771     0.281264
 C    -4.857011     1.140351    -0.230779
 H    -5.819777     1.392619     0.204863
 H    -4.863555     1.490858    -1.262841
 H    -4.095314     1.712752     0.294696
 B    -0.003807     3.854881     1.689021
 C    -6.573211    -3.423946     0.839794
 H    -6.575061    -3.471923     1.928708
 H    -6.468851    -4.440287     0.468118
 H    -7.546221    -3.049419     0.530136
 C     4.953943     0.994580    -0.801807
 H     5.995686     1.234429    -0.607988
 H     4.342863     1.711479    -0.256107
 H     4.773064     1.160559    -1.863452
 H     0.036954     1.426416    -2.096706
 H    -2.441814     2.860293     1.688881
 H    -0.025974     1.293210     2.444844
 H     1.544035     5.455675     0.314689
 H    -2.394789     2.970892    -1.309986
 H     2.423565     2.828860     1.748726
 H    -1.499647     5.468122     0.267547
 H     0.048272     4.527180    -2.203111
 H     2.463969     2.947073    -1.245638
 H    -0.012589     4.393557     2.743242
 H     1.995409     0.316741     1.114528
 H    -1.912994     0.238714     1.062144
