   55
scf done: -1020.588085
 B    -2.236058    -0.033142    -1.442200
 H    -1.463059    -0.104333    -2.329280
 B    -3.024336     1.435988    -0.940203
 H    -2.848007     2.416203    -1.574975
 B    -2.952179     1.526518     0.830973
 H    -2.768273     2.567347     1.358493
 B    -2.147794     0.104275     1.461917
 H    -1.321179     0.124704     2.299765
 B    -3.021153    -1.331128     1.000334
 H    -2.861544    -2.321213     1.625485
 B    -3.065320    -1.417597    -0.774204
 H    -2.944277    -2.463138    -1.311273
 B    -3.965757    -0.003458    -1.378663
 H    -4.590215    -0.056044    -2.382658
 B    -3.873192     0.152790     1.493089
 H    -4.439093     0.231415     2.529589
 B    -4.460783    -0.807105     0.122360
 H    -5.465190    -1.429890     0.187327
 B    -4.427832     0.972218     0.021292
 H    -5.406584     1.637753     0.024449
 N    -0.337435     1.176677    -0.160790
 N    -0.380489    -1.171526     0.073692
 C    -1.698552     0.818406    -0.056763
 C    -1.735228    -0.768284     0.048803
 C     0.424900    -0.037830    -0.390239
 H     1.365687     0.005706     0.150133
 H     0.650262    -0.152008    -1.454522
 C    -0.067010    -2.421727    -0.576080
 H    -0.188033    -2.348256    -1.663527
 H    -0.781967    -3.163130    -0.223674
 C     1.328589    -2.869847    -0.248666
 C     1.780768    -2.853352     1.064629
 H     1.126327    -2.484756     1.840492
 C     3.053380    -3.295299     1.371935
 H     3.394543    -3.278008     2.395860
 C     3.889444    -3.762122     0.370538
 H     4.883215    -4.107172     0.611420
 C     3.446335    -3.780159    -0.938750
 H     4.093168    -4.137527    -1.725303
 C     2.172573    -3.331631    -1.245585
 H     1.832293    -3.341259    -2.271186
 C     0.199367     2.096483     0.819729
 H     0.344577     1.619904     1.793396
 H    -0.537432     2.884492     0.957810
 C     1.492766     2.699977     0.351843
 C     2.554703     2.845373     1.230429
 H     2.459333     2.489958     2.246589
 C     3.734899     3.440620     0.817896
 H     4.553793     3.546711     1.512867
 C     3.865298     3.889134    -0.483273
 H     4.785781     4.349014    -0.808715
 C     2.810494     3.740707    -1.369088
 H     2.907285     4.087103    -2.386807
 C     1.631758     3.150521    -0.954478
 H     0.809186     3.027762    -1.642826
