   68
FINAL HEAT OF FORMATION =  -252.417456
 C     9.120653    11.514847    15.362340
 C     8.132386    12.479539    15.675629
 C     7.001076    12.179246    16.545397
 C     6.856375    10.890236    17.111810
 C     7.870290     9.940850    16.775803
 C     7.660848     8.662867    17.381069
 C     8.624661     7.665544    17.095547
 C     9.757089     7.963379    16.225750
 C     9.922962     9.239389    15.650296
 C     8.952505    10.228927    15.943452
 C     5.923774    10.137720    18.011890
 C     6.397072     8.829112    18.169549
 C    10.406206    11.557106    14.483735
 C    11.427828    12.596792    15.045853
 C    11.118389    13.359702    16.212388
 C    12.041452    14.250002    16.812667
 C    13.345059    14.390461    16.271801
 C    13.679779    13.645386    15.120907
 C    12.740021    12.777597    14.475111
 C    13.227070    12.120339    13.248265
 C    12.496379    11.726230    12.159249
 C    11.043577    11.862847    11.946814
 C    10.633679    12.003564    10.580977
 C     9.284064    12.201891    10.219158
 C     8.306838    12.237105    11.246507
 C     8.692191    12.051685    12.596365
 C    10.049713    11.853628    12.991967
 C    11.022820     9.804671    14.704431
 C    12.346372     9.810100    15.534772
 C    12.196815    10.278596    16.879180
 C    13.267144    10.387486    17.794846
 C    14.573604    10.010906    17.391611
 C    14.753096     9.536023    16.077754
 C    13.673975     9.416146    15.133454
 C    14.097803     8.875130    13.831184
 C    13.366225     8.481740    12.744759
 C    11.911580     8.468205    12.516360
 C    11.533793     7.804268    11.296911
 C    10.194221     7.654841    10.888028
 C     9.176759     8.186601    11.720610
 C     9.530570     8.843863    12.920096
 C    10.881295     9.021818    13.359530
 H     8.197689    13.489004    15.264561
 H     6.278885    12.976022    16.740744
 H     8.546392     6.658741    17.513915
 H    10.480636     7.169703    16.027563
 H     5.022252    10.541188    18.470875
 H    10.151166    13.240518    16.691939
 H    11.747421    14.805485    17.706490
 H    14.077597    15.055150    16.734617
 H    14.677548    13.738915    14.685000
 H    14.314836    12.026935    13.175316
 H    13.055287    11.347575    11.298120
 H    11.404551    11.974975     9.806862
 H     9.002626    12.320418     9.170654
 H     7.251096    12.382093    11.005009
 H     7.905260    12.029394    13.344660
 H    11.211574    10.578307    17.226988
 H    13.078574    10.766966    18.801296
 H    15.420044    10.084574    18.077373
 H    15.750316     9.231353    15.750169
 H    15.181083     8.737276    13.746354
 H    13.944054     8.072127    11.909282
 H    12.332573     7.393096    10.674441
 H     9.950840     7.142387     9.955123
 H     8.123924     8.100906    11.443651
 H     8.721190     9.238163    13.529163
 H     5.920129     8.056206    18.770923
