   66
scf done:  -241.074083
 C     0.000620     4.312758     1.575758
 C     0.001227     4.789302     0.249015
 C     0.001905     4.178435    -2.254268
 H     0.000571     5.026152     2.403902
 H     0.001637     5.863055     0.045781
 H     0.002341     5.225792    -2.566028
 C     0.000213     1.958792     0.839041
 C     0.000114     2.900421     1.880545
 C     0.001321     3.850479    -0.847283
 C     0.001922     3.147020    -3.216739
 C     0.001356     1.751854    -2.840993
 C     0.000791     1.414751    -1.483175
 C     0.000784     2.446609    -0.504734
 C    -0.000084     0.403091     0.901157
 C    -1.288733    -0.115327     1.631292
 C    -2.268114     0.798131     2.128909
 C    -3.489972     0.372309     2.709107
 C    -3.795554    -1.012152     2.788220
 C    -2.847284    -1.938766     2.298966
 C    -1.586681    -1.522496     1.754733
 C    -0.685944    -2.616463     1.342665
 C     0.685039    -2.616624     1.342668
 C     1.586065    -1.522900     1.754744
 C     1.288403    -0.115653     1.631496
 C     0.000040    -0.006403    -0.846519
 C    -1.370929    -0.646885    -1.259557
 C    -2.493479     0.232057    -1.122195
 C    -3.826240    -0.146524    -1.407690
 C    -4.097483    -1.461723    -1.869456
 C    -3.011538    -2.347272    -2.029965
 C    -1.648118    -1.976454    -1.746860
 C    -0.685823    -3.060544    -2.013227
 C     0.683494    -3.061052    -2.013346
 C     1.646641    -1.977750    -1.746812
 C     1.370510    -0.648079    -1.259208
 H    -0.000354     2.586366     2.925665
 H     0.002343     3.405618    -4.278978
 H     0.001350     0.981114    -3.614224
 H    -2.106139     1.867891     2.034472
 H    -4.201260     1.119813     3.069507
 H    -4.741957    -1.356710     3.210959
 H    -3.058376    -3.010029     2.347964
 H    -1.183472    -3.561124     1.103274
 H     1.182349    -3.561394     1.103273
 H    -2.328664     1.247879    -0.772516
 H    -4.633923     0.574599    -1.263764
 H    -5.116359    -1.782572    -2.096488
 H    -3.196480    -3.360856    -2.395128
 H    -1.159352    -4.008024    -2.292663
 H     1.156284    -4.008858    -2.292926
 H     2.329773     1.245796    -0.771705
 C     2.846577    -1.939530     2.298920
 C     3.795037    -1.013180     2.788316
 C     3.489688     0.371346     2.709484
 C     2.267922     0.797514     2.129348
 C     3.009784    -2.349603    -2.029965
 C     4.096454    -1.465034    -1.869056
 C     3.826276    -0.149749    -1.406877
 C     2.493808     0.229897    -1.121495
 H     3.057410    -3.010846     2.347805
 H     4.741385    -1.357979     3.210983
 H     4.201114     1.118670     3.069986
 H     2.106150     1.867328     2.035174
 H     3.193888    -3.363202    -2.395513
 H     5.115078    -1.786679    -2.096098
 H     4.634569     0.570599    -1.262516
