   70
FINAL HEAT OF FORMATION =  -253.640953
 H     6.109495     5.825042    23.037933
 C     7.895532     4.494200    25.418190
 C     8.091344     5.903303    25.492880
 C     7.132569     6.692360    24.791022
 C     7.288193     8.092628    24.836103
 C     6.637041     4.251071    24.553451
 C     6.128588     5.715352    24.135842
 H     6.591390     8.758727    24.321535
 H     6.867214     3.645674    23.659949
 H     5.855849     3.709172    25.113746
 H     5.098608     5.888611    24.492129
 H    12.644566     8.032055    22.915067
 C    10.108796     5.681036    26.903651
 C     9.926818     4.282851    26.838314
 C     8.823880     3.680503    26.098263
 C     8.394850     8.685901    25.578360
 C     9.325022     7.883485    26.261353
 C     9.160508     6.480039    26.210453
 C    11.173578     6.575572    27.607419
 C    11.124495     6.381438    29.158034
 C    10.195346     5.470537    29.745765
 C    10.049856     5.320838    31.146316
 C    10.825953     6.114988    32.028762
 C    11.750691     7.026406    31.475674
 C    11.942795     7.152830    30.061308
 C    12.991805     8.103886    29.649247
 C    13.776709     8.053473    28.528357
 C    13.764339     7.034948    27.461917
 C    15.021052     6.814366    26.809726
 C    15.185419     5.831402    25.810445
 C    14.057945     5.059499    25.430062
 C    12.799218     5.300574    26.032269
 C    12.603950     6.285057    27.047640
 C    10.574771     8.266805    27.109515
 C    10.032768     9.028526    28.362356
 C     8.878472     8.429747    28.960734
 C     8.240870     8.936836    30.114828
 C    12.593444     8.619691    23.834191
 C    11.715313     8.223022    24.867230
 C    11.591263     8.914695    26.114237
 H    10.619747     3.610908    27.349554
 H     8.742026     2.591040    26.088655
 H     9.541449     4.884589    29.106522
 H     9.319370     4.608008    31.536710
 H    10.710897     6.029744    33.111461
 H    12.361473     7.647667    32.135496
 H    13.220881     8.884772    30.380710
 H    14.574637     8.797853    28.447565
 H    15.875729     7.420177    27.121050
 H    16.158863     5.675426    25.340536
 H    14.144399     4.293250    24.655768
 H    11.950430     4.727449    25.670895
 H     8.463467     7.529051    28.515983
 H     7.372385     8.415919    30.523586
 H    11.110956     7.336077    24.695738
 H    14.091984    10.100977    23.227436
 C     8.742801    10.110694    30.732690
 C     9.870652    10.731706    30.161823
 C    10.531210    10.228973    28.986214
 C    11.672788    11.056836    28.562194
 C    12.451830    10.999472    27.439653
 C    12.407223    10.091563    26.281133
 C    13.297358    10.481210    25.219498
 C    13.403786     9.770642    24.008161
 H     8.487178     9.774428    25.592850
 H     8.270986    10.525643    31.625710
 H    10.267107    11.643413    30.616039
 H    11.903131    11.872778    29.255752
 H    13.220270    11.775780    27.357846
 H    13.905133    11.377135    25.369881
