  212
scf done:  -560.564258
 C     0.861950     0.003110     0.010585
 C    -0.861950    -0.003110    -0.010585
 C     1.494141     0.338825    -1.419320
 C    -1.494141    -0.338825     1.419320
 C    -1.479529     1.406707    -0.445426
 C     1.479529    -1.406707     0.445426
 C     1.451445     1.087709     1.025841
 C    -1.451445    -1.087709    -1.025841
 C     1.053801     1.147267     2.394883
 C    -1.053801    -1.147267    -2.394883
 C    -1.091850    -1.478025     2.186560
 C     1.091850     1.478025    -2.186560
 C     1.101989    -2.632905    -0.178393
 C    -1.101989     2.632905     0.178393
 C     2.527251     1.932984     0.629308
 C    -2.527251    -1.932984    -0.629308
 C    -2.613238     0.397290     1.894355
 C     2.613238    -0.397290    -1.894355
 C     2.573343    -1.457516     1.357178
 C    -2.573343     1.457516    -1.357178
 C     1.656035     2.042143     3.328049
 C    -1.656035    -2.042143    -3.328049
 C    -1.749728    -1.850638     3.392310
 C     1.749728     1.850638    -3.392310
 C     1.749899    -3.870114     0.112388
 C    -1.749899     3.870114    -0.112388
 C     3.180372     2.823134     1.533591
 C    -3.180372    -2.823134    -1.533591
 C    -3.321071     0.044155     3.086385
 C     3.321071    -0.044155    -3.086385
 C     3.271821    -2.666369     1.654602
 C    -3.271821     2.666369    -1.654602
 C     2.718031     2.882466     2.877727
 C    -2.718031    -2.882466    -2.877727
 C    -2.867169    -1.074190     3.830469
 C     2.867169     1.074190    -3.830469
 C     2.837959    -3.869814     1.033380
 C    -2.837959     3.869814    -1.033380
 H     0.280482     0.477548     2.751967
 H    -0.280482    -0.477548    -2.751967
 H    -0.273707    -2.091178     1.833589
 H     0.273707     2.091178    -1.833589
 H     0.309204    -2.630472    -0.916967
 H    -0.309204     2.630472     0.916967
 H     2.891783     1.889851    -0.391604
 H    -2.891783    -1.889851     0.391604
 H    -2.974443     1.248073     1.326175
 H     2.974443    -1.248073    -1.326175
 H     2.916926    -0.542645     1.829129
 H    -2.916926     0.542645    -1.829129
 C     1.199156     2.034486     4.820464
 C    -1.199156    -2.034486    -4.820464
 C    -1.322239    -3.090226     4.236298
 C     1.322239     3.090226    -4.236298
 C     1.281517    -5.178080    -0.597899
 C    -1.281517     5.178080     0.597899
 C     4.402455     3.655655     1.039126
 C    -4.402455    -3.655655    -1.039126
 C    -4.576828     0.867773     3.502428
 C     4.576828    -0.867773    -3.502428
 C     4.494937    -2.628438     2.620115
 C    -4.494937     2.628438    -2.620115
 H     3.193291     3.563899     3.577372
 H    -3.193291    -3.563899    -3.577372
 H    -3.385187    -1.360761     4.744066
 H     3.385187     1.360761    -4.744066
 H     3.351077    -4.801127     1.255014
 H    -3.351077     4.801127    -1.255014
 C     5.190679    -0.382004    -4.852778
 C    -5.190679     0.382004     4.852778
 C    -5.131482     4.036958    -2.837913
 C     5.131482    -4.036958     2.837913
 C     4.941857     4.633599     2.129783
 C    -4.941857    -4.633599    -2.129783
 C     5.673725    -0.725869    -2.390694
 C    -5.673725     0.725869     2.390694
 C    -5.597178     1.686322    -2.023468
 C     5.597178    -1.686322     2.023468
 C     5.561016     2.671728     0.651347
 C    -5.561016    -2.671728    -0.651347
 C     4.202076    -2.380063    -3.658010
 C    -4.202076     2.380063     3.658010
 C    -4.053818     2.075619    -4.016692
 C     4.053818    -2.075619     4.016692
 C     4.015541     4.503528    -0.219221
 C    -4.015541    -4.503528     0.219221
 C     0.995834     2.646638    -5.704028
 C    -0.995834    -2.646638     5.704028
 C    -2.056343     6.440367     0.104163
 C     2.056343    -6.440367    -0.104163
 C     1.834466     3.197404     5.647109
 C    -1.834466    -3.197404    -5.647109
 C     0.064951     3.805898    -3.657522
 C    -0.064951    -3.805898     3.657522
 C     0.242653     5.413485     0.331071
 C    -0.242653    -5.413485    -0.331071
 C    -0.356042     2.169078     4.925909
 C     0.356042    -2.169078    -4.925909
 C     2.499741     4.125661    -4.272222
 C    -2.499741    -4.125661     4.272222
 C    -1.509218     5.044171     2.141398
 C     1.509218    -5.044171    -2.141398
 C     1.635522     0.679537     5.475783
 C    -1.635522    -0.679537    -5.475783
 H     0.717712     3.526628    -6.311633
 H    -0.717712    -3.526628     6.311633
 H    -1.669389     7.332886     0.625886
 H     1.669389    -7.332886    -0.625886
 H     1.446042     3.165771     6.679889
 H    -1.446042    -3.165771    -6.679889
 H     1.858798     2.160295    -6.188116
 H    -1.858798    -2.160295     6.188116
 H    -3.136473     6.371222     0.319191
 H     3.136473    -6.371222    -0.319191
 H     2.933043     3.113208     5.704175
 H    -2.933043    -3.113208    -5.704175
 H     0.152746     1.935514    -5.721574
 H    -0.152746    -1.935514     5.721574
 H    -1.926036     6.601809    -0.979807
 H     1.926036    -6.601809     0.979807
 H     1.581926     4.183745     5.220952
 H    -1.581926    -4.183745    -5.220952
 H     2.217807     5.001059    -4.884856
 H    -2.217807    -5.001059     4.884856
 H    -1.153812     5.953552     2.659274
 H     1.153812    -5.953552    -2.659274
 H     1.290637     0.633308     6.524801
 H    -1.290637    -0.633308    -6.524801
 H     2.741269     4.479967    -3.255414
 H    -2.741269    -4.479967     3.255414
 H    -0.963156     4.180608     2.551093
 H     0.963156    -4.180608    -2.551093
 H     1.208455    -0.179559     4.934275
 H    -1.208455     0.179559    -4.934275
 H     3.414820     3.687997    -4.704821
 H    -3.414820    -3.687997     4.704821
 H    -2.580472     4.911684     2.371332
 H     2.580472    -4.911684    -2.371332
 H     2.734165     0.575632     5.468292
 H    -2.734165    -0.575632    -5.468292
 H    -0.201747     4.660163    -4.304501
 H     0.201747    -4.660163     4.304501
 H     0.582153     6.322919     0.859811
 H    -0.582153    -6.322919    -0.859811
 H    -0.664399     2.116919     5.985966
 H     0.664399    -2.116919    -5.985966
 H    -0.804847     3.131117    -3.608149
 H     0.804847    -3.131117     3.608149
 H     0.435645     5.551153    -0.747179
 H    -0.435645    -5.551153     0.747179
 H    -0.694021     3.136809     4.518077
 H     0.694021    -3.136809    -4.518077
 H     0.248068     4.195586    -2.643564
 H    -0.248068    -4.195586     2.643564
 H     0.852858     4.567318     0.681560
 H    -0.852858    -4.567318    -0.681560
 H    -0.880874     1.369355     4.381763
 H     0.880874    -1.369355    -4.381763
 H     6.067248    -1.004931    -5.101861
 H    -6.067248     1.004931     5.101861
 H    -5.987649     3.948810    -3.529060
 H     5.987649    -3.948810     3.529060
 H     5.793112     5.205106     1.720912
 H    -5.793112    -5.205106    -1.720912
 H     4.468875    -0.469390    -5.683148
 H    -4.468875     0.469390     5.683148
 H    -4.412404     4.745856    -3.283204
 H     4.412404    -4.745856     3.283204
 H     4.170497     5.357171     2.445382
 H    -4.170497    -5.357171    -2.445382
 H     5.531560     0.665952    -4.795566
 H    -5.531560    -0.665952     4.795566
 H    -5.506519     4.467955    -1.893840
 H     5.506519    -4.467955     1.893840
 H     5.300746     4.095127     3.023488
 H    -5.300746    -4.095127    -3.023488
 H     6.567745    -1.317616    -2.658771
 H    -6.567745     1.317616     2.658771
 H    -6.464803     1.634406    -2.706000
 H     6.464803    -1.634406     2.706000
 H     6.436764     3.237824     0.285296
 H    -6.436764    -3.237824    -0.285296
 H     5.979441     0.328608    -2.273758
 H    -5.979441    -0.328608     2.273758
 H    -5.948071     2.063356    -1.046876
 H     5.948071    -2.063356     1.046876
 H     5.876041     2.073183     1.524024
 H    -5.876041    -2.073183    -1.524024
 H     5.307262    -1.082627    -1.414465
 H    -5.307262     1.082627     1.414465
 H    -5.217832     0.662420    -1.874616
 H     5.217832    -0.662420     1.874616
 H     5.247326     1.974275    -0.142342
 H    -5.247326    -1.974275     0.142342
 H     5.098845    -2.965819    -3.929819
 H    -5.098845     2.965819     3.929819
 H    -4.922689     2.025198    -4.697771
 H     4.922689    -2.025198     4.697771
 H     4.897490     5.059707    -0.585033
 H    -4.897490    -5.059707     0.585033
 H     3.794516    -2.795408    -2.723210
 H    -3.794516     2.795408     2.723210
 H    -3.625822     1.065026    -3.934065
 H     3.625822    -1.065026     3.934065
 H     3.650768     3.868133    -1.041744
 H    -3.650768    -3.868133     1.041744
 H     3.444943    -2.518136    -4.448519
 H    -3.444943     2.518136     4.448519
 H    -3.292655     2.730269    -4.476082
 H     3.292655    -2.730269     4.476082
 H     3.224327     5.232027     0.025165
 H    -3.224327    -5.232027    -0.025165
