   66
scf done:  -180.845620
 N     1.535829    -0.282912     0.877764
 C     2.832748    -0.752125     0.390527
 C     0.948140     0.951267     0.584563
 C     2.905328    -1.685254    -0.694558
 C     4.187213    -2.129045    -1.138246
 H     4.239433    -2.842152    -1.965123
 C     4.031272    -0.308415     1.045190
 C     5.289481    -0.772239     0.567370
 H     6.199380    -0.431443     1.067929
 C     5.390857    -1.670263    -0.535295
 C     1.664482    -2.241264    -1.399293
 H     0.765474    -2.145950    -0.774455
 H     1.806560    -3.306244    -1.645793
 H     1.477255    -1.704845    -2.346513
 B     0.538387     1.320738    -1.250076
 H     1.021207     0.583387    -2.042899
 B     0.918779     2.424361     1.560153
 H     1.493931     2.325979     2.589436
 C     6.759128    -2.130327    -1.048687
 H     7.448482    -2.347417    -0.215162
 H     7.230701    -1.346626    -1.669794
 H     6.670491    -3.037754    -1.667701
 C     3.995235     0.637470     2.246838
 H     3.844356     1.682180     1.928370
 H     4.945262     0.587504     2.801890
 H     3.173931     0.390443     2.937858
 B     1.724613     2.234106    -0.093576
 H     2.890656     2.163551    -0.282454
 B     0.683120     3.134944    -1.307413
 H     1.227996     3.704670    -2.194373
 B     0.803107     3.766198     0.401715
 H     1.377382     4.775928     0.646616
 H     1.044545    -0.870620     1.551355
 N    -1.535694    -0.283085    -0.877656
 C    -2.832660    -0.752214    -0.390455
 C    -0.948075     0.951153    -0.584572
 C    -2.905398    -1.684999     0.694905
 C    -4.187347    -2.128667     1.138552
 H    -4.239675    -2.841502     1.965659
 C    -4.031107    -0.308699    -1.045410
 C    -5.289373    -0.772411    -0.567652
 H    -6.199204    -0.431771    -1.068440
 C    -5.390900    -1.670113     0.535271
 C    -1.664674    -2.240863     1.399962
 H    -0.765128    -2.143201     0.776293
 H    -1.805694    -3.306508     1.644238
 H    -1.479195    -1.706067     2.348441
 B    -0.538365     1.320776     1.250045
 H    -1.021106     0.583402     2.042899
 B    -0.918838     2.424197    -1.560257
 H    -1.493967     2.325708    -2.589540
 C    -6.759245    -2.130040     1.048589
 H    -7.448416    -2.347543     0.215020
 H    -7.230998    -1.346096     1.669254
 H    -6.670673    -3.037188     1.668019
 C    -3.994913     0.636908    -2.247270
 H    -3.844185     1.681704    -1.929004
 H    -4.944831     0.586742    -2.802494
 H    -3.173454     0.389797    -2.938073
 B    -1.724661     2.233978     0.093472
 H    -2.890703     2.163336     0.282332
 B    -0.683239     3.134968     1.307270
 H    -1.228155     3.704712     2.194194
 B    -0.803276     3.766110    -0.401901
 H    -1.377625     4.775782    -0.646869
 H    -1.044267    -0.870958    -1.550994
