   58
FINAL HEAT OF FORMATION =  -237.900256
 I     0.196609     0.771546     4.413960
 I    -0.984599    -4.769836    -0.055301
 C     0.876548    -2.942455     4.406015
 C     0.817097    -4.216969     3.217115
 C    -0.003270    -3.199991     2.405611
 C    -0.694719    -3.053371     1.211023
 C    -1.185905    -1.725242     0.855872
 C    -1.916391    -1.474235    -0.361224
 C    -2.373925    -0.191980    -0.696657
 C    -2.119464     0.913909     0.180673
 C    -1.413376     0.714390     1.375519
 C    -0.925408    -0.586172     1.760752
 C    -0.198750    -0.808996     3.007197
 C     0.235933    -2.095859     3.292719
 C    -0.045030    -3.174171     5.619621
 C    -1.452811    -3.234804     5.677443
 C    -2.082488    -3.463567     6.933867
 C    -1.304655    -3.624481     8.114853
 C     0.113081    -3.519363     8.065607
 C     0.733519    -3.274265     6.815409
 C     2.148956    -2.963294     6.476859
 C     3.283827    -2.845958     7.316046
 C     4.506507    -2.387286     6.753403
 C     4.576734    -2.035712     5.376969
 C     3.438628    -2.171144     4.531912
 C     2.228630    -2.656482     5.076437
 C     0.322523    -5.596458     3.677506
 C    -0.945669    -6.007944     4.144914
 C    -1.130371    -7.358336     4.557371
 C    -0.054777    -8.287665     4.507280
 C     1.215614    -7.889629     4.007691
 C     1.391524    -6.550307     3.582005
 C     2.544495    -5.904893     2.897284
 C     3.779442    -6.442911     2.457529
 C     4.638432    -5.625889     1.671321
 C     4.251852    -4.302899     1.316588
 C     3.017705    -3.761200     1.775914
 C     2.184847    -4.554533     2.591874
 H    -2.109196    -2.313104    -1.029936
 H    -2.924036    -0.037728    -1.627230
 H    -2.475003     1.912956    -0.079866
 H    -1.222408     1.555587     2.041813
 H    -2.059520    -3.085230     4.782111
 H    -3.172703    -3.507607     6.992029
 H    -1.801828    -3.805642     9.070897
 H     0.703530    -3.599363     8.980715
 H     3.220881    -3.082391     8.380255
 H     5.391380    -2.285499     7.386360
 H     5.512595    -1.656078     4.960361
 H     3.508422    -1.875083     3.487570
 H    -1.787850    -5.319987     4.170424
 H    -2.110944    -7.681097     4.914882
 H    -0.210836    -9.318104     4.835677
 H     2.031214    -8.612207     3.936361
 H     4.059634    -7.472297     2.690579
 H     5.591410    -6.025757     1.316423
 H     4.903224    -3.699646     0.679662
 H     2.717840    -2.755171     1.475737
