   54
FINAL HEAT OF FORMATION =  -203.683511
 C     9.143427     5.471259    10.813586
 C     7.705117     6.220191    11.484254
 C     7.519057     4.265246     9.174133
 C     6.392531     4.851666     9.699708
 C     9.143816     3.933885    10.936695
 C     9.926443     3.182799    11.844922
 H    10.578170     3.690347    12.558329
 C     9.852186     1.759889    11.829420
 H    10.460265     1.179980    12.528134
 C     8.993254     1.094392    10.915937
 H     8.940955     0.002968    10.910213
 C     8.192232     1.845538    10.006843
 H     7.521128     1.339789     9.310095
 C     8.268435     3.254774    10.019983
 C     9.371998     5.814377     9.327350
 C    10.353378     6.704463     8.831245
 H    11.008588     7.239323     9.521118
 C    10.475588     6.906036     7.425935
 H    11.236753     7.590297     7.042954
 C     9.614764     6.226910     6.524350
 H     9.713754     6.387032     5.447996
 C     8.615259     5.338405     7.018170
 H     7.942672     4.822420     6.330416
 C     8.496554     5.136221     8.409904
 C     6.707251     5.202433    12.073377
 C     6.482975     4.975278    13.451648
 H     7.061014     5.521292    14.199338
 C     5.504590     4.022544    13.858432
 H     5.328631     3.850516    14.923186
 C     4.761960     3.296299    12.890865
 H     4.013754     2.566794    13.210217
 C     4.991947     3.510999    11.500446
 H     4.432337     2.947036    10.751847
 C     5.958651     4.457135    11.097633
 C     6.935291     7.082778    10.463584
 C     6.910240     8.497049    10.436695
 H     7.492146     9.070258    11.160654
 C     6.128535     9.169088     9.452990
 H     6.105926    10.261532     9.435349
 C     5.383849     8.429170     8.497425
 H     4.787159     8.951336     7.745575
 C     5.415065     7.003996     8.510649
 H     4.854005     6.429759     7.771002
 C     6.186639     6.338440     9.487216
 C     9.868407     6.299706    11.884537
 C    11.160337     6.570523    12.385652
 H    12.063022     6.111436    11.978037
 C    11.237065     7.493037    13.474840
 H    12.212613     7.739303    13.902031
 C    10.067394     8.102340    14.020017
 H    10.172125     8.802211    14.853109
 C     8.766042     7.817746    13.501605
 H     7.879340     8.290713    13.927990
 C     8.706566     6.904946    12.426064
