   74
FINAL HEAT OF FORMATION =  -205.699797
 C     0.830195     5.564514     9.031151
 C     1.608920     5.641739     7.631903
 C     0.873803     3.954084     9.697070
 C     1.846561     7.117702     7.146162
 C    -0.486990     3.690210    10.455956
 C    -0.610363     6.274562     8.698006
 C     2.079281     3.763172    10.738807
 C    -1.532018     6.538079     9.944512
 C     1.735212     7.999688     9.512147
 C     3.617107     2.532113     9.076634
 C     1.493658     6.561134    10.096634
 C    -0.350167     7.765477     8.146229
 C    -1.362759     5.520467     7.549820
 C     1.935133     2.408595    11.542756
 C     0.933672     1.318321     9.507203
 C     0.615772     6.735395    11.386639
 C     0.467926     7.776293     6.826621
 C     1.075430     2.687427     8.710053
 C     0.357234     8.663525     9.205363
 C     2.081926     1.198493    10.565480
 C    -0.571332     2.344815    11.230334
 C     3.485299     3.750436    10.044112
 C     3.481146     1.212566     9.889687
 C     2.479084     2.580681     8.009948
 C    -0.541142     5.551465     6.217454
 C    -0.436466     1.176822    10.220305
 C    -0.773013     7.364220    11.039729
 C     0.572128     2.308028    12.283935
 C     2.600868     7.939772     8.225376
 C    -0.512244     8.795784    10.486046
 C     0.860325     4.918370     6.454844
 C    -0.324281     7.012428     5.730521
 H     2.483730     6.180911    10.388288
 H     4.600299     2.564597     8.571563
 H    -1.552474     2.296279    11.739296
 H    -1.262744     1.215658     9.485787
 H     3.578779     7.470660     8.444887
 H     0.750520     3.844521     6.618608
 H     0.524029     9.665952     8.764969
 H     2.263769     8.589620    10.286311
 H     3.669023     4.688804     9.496880
 H     1.148071     7.420244    12.075451
 H     4.274887     1.145059    10.657465
 H     3.594999     0.339084     9.220731
 H    -1.355709     8.182670     7.937610
 H    -2.394164     7.139756     9.594489
 H    -1.467822     9.298296    10.246193
 H     0.532998     1.372222    12.872442
 H     0.494300     5.790739    11.932946
 H     2.063432     4.565166    11.490193
 H     0.454850     3.146339    12.996496
 H     2.805586     8.962246     7.855528
 H     2.607015     5.199636     7.762122
 H     4.266502     3.682314    10.825902
 H     0.270872     2.684218     7.955643
 H     2.759299     2.379212    12.282370
 H     0.229125     7.010920     4.772812
 H    -1.292301     7.516905     5.550270
 H    -1.565290     4.472927     7.832581
 H     2.458346     7.069895     6.224257
 H    -0.497993     0.197874    10.731886
 H    -1.314485     3.722643     9.729242
 H    -1.081731     4.973958     5.444457
 H     0.005420     9.414889    11.242694
 H    -0.663877     4.484803    11.186093
 H     2.495249     1.641769     7.422895
 H     2.668325     3.387409     7.296413
 H    -1.962750     5.623019    10.360923
 H    -1.392489     7.419565    11.954177
 H     0.626961     8.825463     6.509414
 H     1.042377     0.507329     8.761191
 H     1.470994     5.034074     5.538059
 H    -2.346910     6.002289     7.387927
 H     1.951581     0.255988    11.131907
