   23
FINAL HEAT OF FORMATION =   -84.009350
 C     7.901377     5.716548     9.907513
 C     8.096081     7.023229    10.403359
 C     7.058312     7.983275    10.257393
 C     5.845673     7.605858     9.614514
 C     5.701431     6.288257     9.137213
 N     6.720184     5.370285     9.288168
 C     6.525939     3.979289     8.766723
 C     7.580351     2.805950     8.844307
 C     5.401126     2.956995     9.220933
 C     6.235436     3.576884     7.259776
 C     6.286106     2.234703     8.112947
 I     6.024422     0.244508     7.374335
 H     8.655499     4.936593     9.987382
 H     9.037883     7.273611    10.889200
 H     7.189323     8.998473    10.633776
 H     5.028290     8.313436     9.484018
 H     4.800666     5.936802     8.637523
 H     7.791562     2.385301     9.836317
 H     8.479294     2.896652     8.220383
 H     4.366499     3.187418     8.934473
 H     5.478087     2.560188    10.241122
 H     7.051760     3.729596     6.542526
 H     5.254498     3.847047     6.847001
