   55
FINAL HEAT OF FORMATION =  -159.121225
 B     0.317767     0.671464    12.663597
 H    -0.843475     0.879661    12.623269
 B     1.248810     0.257568    14.133906
 H     0.664896     0.048895    15.141544
 B     2.762963     1.314223    14.195605
 H     3.142554     1.713239    15.242632
 B     2.891264     2.381529    12.745211
 H     3.139340     3.533327    12.795944
 B     2.876968     1.394864    11.250923
 H     3.288144     1.863226    10.244738
 B     1.322391     0.393260    11.196012
 H     0.788288     0.226892    10.153410
 B     1.349103    -0.768588    12.623401
 H     0.842636    -1.837942    12.558757
 B     3.810701     0.876982    12.745160
 H     4.993790     0.924116    12.795014
 B     2.890905    -0.348015    11.752339
 H     3.458641    -1.157399    11.098960
 B     2.843335    -0.410428    13.596146
 H     3.390200    -1.252712    14.225246
 N     0.481675     3.059255    13.936033
 N     0.613889     3.184297    11.523118
 C     1.275824     1.925368    13.531120
 C     1.354996     1.996738    11.888338
 C    -0.158540     3.674836    12.731684
 H    -0.117851     4.771042    12.798530
 H    -1.218991     3.365845    12.646239
 C    -0.130359     3.186184    10.234608
 H    -1.052047     2.569500    10.303297
 H     0.524929     2.716177     9.484322
 C    -0.495364     4.610903     9.797125
 C     0.484749     5.645474     9.813852
 H     1.489544     5.420736    10.177807
 C     0.153636     6.952510     9.371157
 H     0.912104     7.739074     9.385939
 C    -1.160666     7.239359     8.906266
 H    -1.414315     8.245921     8.565370
 C    -2.141684     6.212284     8.890279
 H    -3.154131     6.425384     8.539030
 C    -1.809790     4.903939     9.338000
 H    -2.568670     4.116752     9.327735
 C     0.979547     3.965402    15.009225
 H     1.736340     4.676628    14.620102
 H     1.480244     3.328399    15.754343
 C    -0.165959     4.742507    15.673215
 C    -0.020570     6.132024    15.945802
 H     0.895597     6.649793    15.648642
 C    -1.057211     6.849758    16.603337
 H    -0.933982     7.915991    16.807947
 C    -2.251721     6.182854    16.985541
 H    -3.051023     6.733223    17.487464
 C    -2.404667     4.795304    16.708176
 H    -3.322018     4.277551    16.998906
 C    -1.367706     4.078826    16.055946
 H    -1.483131     3.015800    15.834092
