   72
FINAL HEAT OF FORMATION =  -194.597994
 N    10.623562     9.114686     2.564150
 N     8.316012     6.521452     1.837967
 C    12.624019    11.177616    -0.996627
 H    12.983148    10.817537    -1.964035
 C    11.585038    10.461095    -0.336936
 C     6.897103     6.102938    -0.161021
 C    11.112756    10.922531     0.937357
 C     9.976663     8.471336     3.608590
 C    10.012391    10.155763     1.676862
 H     9.411909    10.837007     2.297760
 H     9.324727     9.675169     0.963812
 C    13.204697    12.345276    -0.428114
 B     7.549198     6.923037     4.387828
 C     8.640903     6.768578     3.160813
 B     8.333508     8.559850     3.834659
 C     6.889345     4.212790    -1.749509
 H     6.891326     3.134490    -1.928745
 C    11.695957    12.093131     1.532593
 C     6.865809     7.016809    -1.266120
 C    12.730911    12.782681     0.841359
 H    13.172857    13.670119     1.301447
 C     6.929479     6.616176     1.281177
 H     6.582503     7.658800     1.342015
 H     6.261699     6.017028     1.920270
 B     9.489752     9.111961     5.188241
 B    10.209504     6.564392     3.665698
 C     6.898343     4.685953    -0.408595
 B     8.007169     8.233764     5.594750
 C     6.854952     6.503217    -2.595521
 H     6.831308     7.204991    -3.432982
 C     6.870316     5.106294    -2.859004
 B     8.840108     5.604747     4.486377
 B    10.813506     7.860923     4.898685
 C    14.300150    13.119989    -1.165989
 H    13.874375    13.972696    -1.726027
 H    14.825886    12.477135    -1.890227
 H    15.045267    13.527682    -0.463095
 C    11.000806     9.211157    -1.009735
 H    11.600881     8.934363    -1.890071
 H     9.964934     9.379909    -1.355156
 H    10.981404     8.344006    -0.328219
 B     8.416398     6.487086     5.964176
 C     6.820608     8.537178    -1.061219
 H     6.928172     9.056823    -2.025870
 H     7.624740     8.891525    -0.394305
 H     5.862806     8.859941    -0.615367
 B     9.641838     7.752035     6.323281
 C     6.886985     3.672003     0.743069
 H     6.967411     2.646202     0.352634
 H     5.950114     3.734626     1.325987
 H     7.716992     3.834813     1.450042
 B    10.182723     6.234198     5.457052
 C     6.866991     4.571286    -4.293846
 H     7.795033     4.014644    -4.514859
 H     6.783035     5.391091    -5.024651
 H     6.023261     3.879246    -4.460524
 C    11.232547    12.615112     2.898865
 H    11.861452    13.459327     3.220059
 H    11.287341    11.836454     3.677873
 H    10.187300    12.972344     2.867200
 H     7.659513     9.255827     3.150821
 H     8.641248     4.486895     4.147777
 H    11.011751     6.139002     2.897960
 H     9.992157     7.983051     7.433111
 H     6.401216     6.722936     4.171494
 H    11.974364     8.103517     4.960298
 H     7.860012     5.899003     6.831755
 H     7.132387     8.770032     6.190217
 H     9.713110    10.268884     5.315664
 H    10.941334     5.489545     5.983326
 H    11.628213     8.967856     2.464952
 H     9.054268     6.222548     1.201845
