   54
FINAL HEAT OF FORMATION =  -153.519594
 B     1.105072     0.000061     8.126883
 B     0.704866     1.508396     9.148585
 B    -1.119931     1.504784     9.238241
 B    -1.596743    -0.000187     8.249635
 B     1.308017     0.000096     9.936026
 B    -0.140459     0.894208    10.638652
 B    -1.646419    -0.000166    10.076826
 C    -0.265450     1.061207     7.825100
 N    -0.363404     1.706782     6.590328
 C     0.784070     2.399984     5.934991
 H     1.585755     1.662518     5.766684
 H     1.189420     3.181800     6.601545
 C     0.341475     3.030098     4.611162
 C     0.436987     4.438103     4.417536
 H     0.819246     5.068968     5.224053
 C     0.039343     5.025762     3.185555
 H     0.119224     6.106764     3.049379
 C    -0.464276     4.209846     2.137401
 H    -0.771809     4.660272     1.190834
 C    -0.567096     2.803368     2.325052
 H    -0.951821     2.171251     1.521030
 C    -0.164814     2.217614     3.553604
 H    -0.241350     1.137639     3.696344
 H     2.005922     0.000133     7.359327
 H    -2.658904    -0.000247    10.693671
 H     1.363723     2.484289     9.017958
 H    -2.540850    -0.000277     7.529629
 H     2.370317     0.000195    10.462722
 H    -1.780248     2.484583     9.147485
 H    -0.091737     1.525506    11.641360
 H    -1.295986     1.980135     6.281302
 B     0.705129    -1.508330     9.148618
 B    -1.119669    -1.505043     9.238279
 B    -0.140301    -0.894258    10.638673
 C    -0.265260    -1.061344     7.825122
 N    -0.363023    -1.706970     6.590353
 C     0.784586    -2.400295     5.935344
 H     1.586497    -1.662983     5.767472
 H     1.189472    -3.182292     6.601968
 C     0.342404    -3.030134     4.611259
 C     0.434729    -4.438489     4.418626
 H     0.814328    -5.069790     5.226058
 C     0.037350    -5.025929     3.186453
 H     0.114763    -6.107207     3.051045
 C    -0.462759    -4.209412     2.137088
 H    -0.770048    -4.659656     1.190355
 C    -0.562337    -2.802562     2.323716
 H    -0.944293    -2.169986     1.518736
 C    -0.160358    -2.217052     3.552482
 H    -0.234296    -1.136789     3.694406
 H     1.364161    -2.484106     9.018015
 H    -1.779809    -2.484962     9.147547
 H    -0.091462    -1.525524    11.641396
 H    -1.295545    -1.980372     6.281188
