   50
FINAL HEAT OF FORMATION =  -151.083601
 B     5.751788     3.532020     3.570531
 B     4.175292     4.460885     3.585634
 B     3.548411     4.460282     5.295590
 B     5.757609     5.339293     3.555628
 B     4.395046     5.920490     4.636203
 C     4.406542     3.089371     4.640338
 C     2.629226     1.654251     3.988271
 H     1.992074     2.523856     3.752612
 N     3.847073     1.793073     4.436023
 C     2.021261     0.318514     3.766727
 C     0.683251     0.244745     3.275308
 H     0.130181     1.165542     3.070640
 C     0.073285    -1.017067     3.053420
 H    -0.950709    -1.069696     2.677369
 C     0.798220    -2.209818     3.321770
 H     0.330017    -3.182358     3.151590
 C     2.134884    -2.139964     3.812586
 H     2.688639    -3.059086     4.017501
 C     2.746881    -0.883586     4.035258
 H     3.768039    -0.804760     4.410293
 H     2.397808     4.296797     5.520908
 H     6.054846     2.746449     2.744947
 H     3.442941     4.297719     2.669973
 H     6.112806     5.922356     2.587386
 H     3.793413     6.917439     4.415821
 B     4.741726     3.532022     6.326652
 B     6.318220     4.460890     6.311547
 B     6.945100     4.460284     4.601592
 B     4.735902     5.339295     6.341551
 B     6.098463     5.920493     5.260975
 C     6.086968     3.089372     5.256845
 C     7.864285     1.654255     5.908919
 H     8.501434     2.523861     6.144581
 N     6.646439     1.793075     5.461162
 C     8.472251     0.318519     6.130465
 C     9.810259     0.244752     6.621891
 H    10.363326     1.165550     6.826562
 C    10.420226    -1.017059     6.843781
 H    11.444218    -1.069686     7.219837
 C     9.695294    -2.209811     6.575427
 H    10.163499    -3.182350     6.745610
 C     8.358633    -2.139959     6.084605
 H     7.804881    -3.059082     5.879687
 C     7.746635    -0.883583     5.861930
 H     6.725478    -0.804759     5.486890
 H     8.095703     4.296795     4.376274
 H     4.438666     2.746454     7.152238
 H     7.050570     4.297724     7.227208
 H     4.380703     5.922360     7.309791
 H     6.700096     6.917442     5.481354
